
---------- Begin Simulation Statistics ----------
sim_seconds                                  0.080141                       # Number of seconds simulated
sim_ticks                                 80141315000                       # Number of ticks simulated
final_tick                                93876576500                       # Number of ticks from beginning of simulation (restored from checkpoints and never reset)
sim_freq                                 1000000000000                       # Frequency of simulated ticks
host_inst_rate                                  34740                       # Simulator instruction rate (inst/s)
host_op_rate                                    71052                       # Simulator op (including micro ops) rate (op/s)
host_tick_rate                              139206269                       # Simulator tick rate (ticks/s)
host_mem_usage                                2282292                       # Number of bytes of host memory used
host_seconds                                   575.70                       # Real time elapsed on the host
sim_insts                                    20000002                       # Number of instructions simulated
sim_ops                                      40904519                       # Number of ops (including micro ops) simulated
system.voltage_domain.voltage                       1                       # Voltage in Volts
system.clk_domain.clock                          1000                       # Clock period in ticks
system.mem_ctrls.pwrStateResidencyTicks::UNDEFINED  93876576500                       # Cumulative time (in ticks) in various power states
system.mem_ctrls.bytes_read::l2.prefetcher     42299648                       # Number of bytes read from this memory
system.mem_ctrls.bytes_read::switch_cpus.data      1087232                       # Number of bytes read from this memory
system.mem_ctrls.bytes_read::total           43386880                       # Number of bytes read from this memory
system.mem_ctrls.bytes_written::writebacks     43386880                       # Number of bytes written to this memory
system.mem_ctrls.bytes_written::total        43386880                       # Number of bytes written to this memory
system.mem_ctrls.num_reads::l2.prefetcher       660932                       # Number of read requests responded to by this memory
system.mem_ctrls.num_reads::switch_cpus.data        16988                       # Number of read requests responded to by this memory
system.mem_ctrls.num_reads::total              677920                       # Number of read requests responded to by this memory
system.mem_ctrls.num_writes::writebacks        677920                       # Number of write requests responded to by this memory
system.mem_ctrls.num_writes::total             677920                       # Number of write requests responded to by this memory
system.mem_ctrls.bw_read::l2.prefetcher     527813251                       # Total read bandwidth from this memory (bytes/s)
system.mem_ctrls.bw_read::switch_cpus.data     13566436                       # Total read bandwidth from this memory (bytes/s)
system.mem_ctrls.bw_read::total             541379687                       # Total read bandwidth from this memory (bytes/s)
system.mem_ctrls.bw_write::writebacks       541379687                       # Write bandwidth from this memory (bytes/s)
system.mem_ctrls.bw_write::total            541379687                       # Write bandwidth from this memory (bytes/s)
system.mem_ctrls.bw_total::writebacks       541379687                       # Total bandwidth to/from this memory (bytes/s)
system.mem_ctrls.bw_total::l2.prefetcher    527813251                       # Total bandwidth to/from this memory (bytes/s)
system.mem_ctrls.bw_total::switch_cpus.data     13566436                       # Total bandwidth to/from this memory (bytes/s)
system.mem_ctrls.bw_total::total           1082759373                       # Total bandwidth to/from this memory (bytes/s)
system.mem_ctrls.readReqs                      677920                       # Number of read requests accepted
system.mem_ctrls.writeReqs                     677920                       # Number of write requests accepted
system.mem_ctrls.readBursts                    677920                       # Number of DRAM read bursts, including those serviced by the write queue
system.mem_ctrls.writeBursts                   677920                       # Number of DRAM write bursts, including those merged in the write queue
system.mem_ctrls.bytesReadDRAM               43386880                       # Total number of bytes read from DRAM
system.mem_ctrls.bytesReadWrQ                       0                       # Total number of bytes read from write queue
system.mem_ctrls.bytesWritten                43385920                       # Total number of bytes written to DRAM
system.mem_ctrls.bytesReadSys                43386880                       # Total read bytes from the system interface side
system.mem_ctrls.bytesWrittenSys             43386880                       # Total written bytes from the system interface side
system.mem_ctrls.servicedByWrQ                      0                       # Number of DRAM read bursts serviced by the write queue
system.mem_ctrls.mergedWrBursts                     0                       # Number of DRAM write bursts merged with an existing one
system.mem_ctrls.neitherReadNorWriteReqs            0                       # Number of requests that are neither read nor write
system.mem_ctrls.perBankRdBursts::0             42345                       # Per bank write bursts
system.mem_ctrls.perBankRdBursts::1             42276                       # Per bank write bursts
system.mem_ctrls.perBankRdBursts::2             42202                       # Per bank write bursts
system.mem_ctrls.perBankRdBursts::3             42265                       # Per bank write bursts
system.mem_ctrls.perBankRdBursts::4             42240                       # Per bank write bursts
system.mem_ctrls.perBankRdBursts::5             42482                       # Per bank write bursts
system.mem_ctrls.perBankRdBursts::6             42425                       # Per bank write bursts
system.mem_ctrls.perBankRdBursts::7             42365                       # Per bank write bursts
system.mem_ctrls.perBankRdBursts::8             42330                       # Per bank write bursts
system.mem_ctrls.perBankRdBursts::9             42357                       # Per bank write bursts
system.mem_ctrls.perBankRdBursts::10            42368                       # Per bank write bursts
system.mem_ctrls.perBankRdBursts::11            42485                       # Per bank write bursts
system.mem_ctrls.perBankRdBursts::12            42571                       # Per bank write bursts
system.mem_ctrls.perBankRdBursts::13            42496                       # Per bank write bursts
system.mem_ctrls.perBankRdBursts::14            42356                       # Per bank write bursts
system.mem_ctrls.perBankRdBursts::15            42357                       # Per bank write bursts
system.mem_ctrls.perBankWrBursts::0             42432                       # Per bank write bursts
system.mem_ctrls.perBankWrBursts::1             42485                       # Per bank write bursts
system.mem_ctrls.perBankWrBursts::2             42400                       # Per bank write bursts
system.mem_ctrls.perBankWrBursts::3             42240                       # Per bank write bursts
system.mem_ctrls.perBankWrBursts::4             42266                       # Per bank write bursts
system.mem_ctrls.perBankWrBursts::5             42357                       # Per bank write bursts
system.mem_ctrls.perBankWrBursts::6             42333                       # Per bank write bursts
system.mem_ctrls.perBankWrBursts::7             42485                       # Per bank write bursts
system.mem_ctrls.perBankWrBursts::8             42457                       # Per bank write bursts
system.mem_ctrls.perBankWrBursts::9             42368                       # Per bank write bursts
system.mem_ctrls.perBankWrBursts::10            42327                       # Per bank write bursts
system.mem_ctrls.perBankWrBursts::11            42314                       # Per bank write bursts
system.mem_ctrls.perBankWrBursts::12            42329                       # Per bank write bursts
system.mem_ctrls.perBankWrBursts::13            42401                       # Per bank write bursts
system.mem_ctrls.perBankWrBursts::14            42278                       # Per bank write bursts
system.mem_ctrls.perBankWrBursts::15            42433                       # Per bank write bursts
system.mem_ctrls.numRdRetry                         0                       # Number of times read queue was full causing retry
system.mem_ctrls.numWrRetry                         0                       # Number of times write queue was full causing retry
system.mem_ctrls.totGap                   80139734500                       # Total gap between requests
system.mem_ctrls.readPktSize::0                     0                       # Read request sizes (log2)
system.mem_ctrls.readPktSize::1                     0                       # Read request sizes (log2)
system.mem_ctrls.readPktSize::2                     0                       # Read request sizes (log2)
system.mem_ctrls.readPktSize::3                     0                       # Read request sizes (log2)
system.mem_ctrls.readPktSize::4                     0                       # Read request sizes (log2)
system.mem_ctrls.readPktSize::5                     0                       # Read request sizes (log2)
system.mem_ctrls.readPktSize::6                677920                       # Read request sizes (log2)
system.mem_ctrls.writePktSize::0                    0                       # Write request sizes (log2)
system.mem_ctrls.writePktSize::1                    0                       # Write request sizes (log2)
system.mem_ctrls.writePktSize::2                    0                       # Write request sizes (log2)
system.mem_ctrls.writePktSize::3                    0                       # Write request sizes (log2)
system.mem_ctrls.writePktSize::4                    0                       # Write request sizes (log2)
system.mem_ctrls.writePktSize::5                    0                       # Write request sizes (log2)
system.mem_ctrls.writePktSize::6               677920                       # Write request sizes (log2)
system.mem_ctrls.rdQLenPdf::0                  106826                       # What read queue length does an incoming req see
system.mem_ctrls.rdQLenPdf::1                   92427                       # What read queue length does an incoming req see
system.mem_ctrls.rdQLenPdf::2                  226879                       # What read queue length does an incoming req see
system.mem_ctrls.rdQLenPdf::3                  226931                       # What read queue length does an incoming req see
system.mem_ctrls.rdQLenPdf::4                   16237                       # What read queue length does an incoming req see
system.mem_ctrls.rdQLenPdf::5                    3921                       # What read queue length does an incoming req see
system.mem_ctrls.rdQLenPdf::6                    2337                       # What read queue length does an incoming req see
system.mem_ctrls.rdQLenPdf::7                    1992                       # What read queue length does an incoming req see
system.mem_ctrls.rdQLenPdf::8                     370                       # What read queue length does an incoming req see
system.mem_ctrls.rdQLenPdf::9                       0                       # What read queue length does an incoming req see
system.mem_ctrls.rdQLenPdf::10                      0                       # What read queue length does an incoming req see
system.mem_ctrls.rdQLenPdf::11                      0                       # What read queue length does an incoming req see
system.mem_ctrls.rdQLenPdf::12                      0                       # What read queue length does an incoming req see
system.mem_ctrls.rdQLenPdf::13                      0                       # What read queue length does an incoming req see
system.mem_ctrls.rdQLenPdf::14                      0                       # What read queue length does an incoming req see
system.mem_ctrls.rdQLenPdf::15                      0                       # What read queue length does an incoming req see
system.mem_ctrls.rdQLenPdf::16                      0                       # What read queue length does an incoming req see
system.mem_ctrls.rdQLenPdf::17                      0                       # What read queue length does an incoming req see
system.mem_ctrls.rdQLenPdf::18                      0                       # What read queue length does an incoming req see
system.mem_ctrls.rdQLenPdf::19                      0                       # What read queue length does an incoming req see
system.mem_ctrls.rdQLenPdf::20                      0                       # What read queue length does an incoming req see
system.mem_ctrls.rdQLenPdf::21                      0                       # What read queue length does an incoming req see
system.mem_ctrls.rdQLenPdf::22                      0                       # What read queue length does an incoming req see
system.mem_ctrls.rdQLenPdf::23                      0                       # What read queue length does an incoming req see
system.mem_ctrls.rdQLenPdf::24                      0                       # What read queue length does an incoming req see
system.mem_ctrls.rdQLenPdf::25                      0                       # What read queue length does an incoming req see
system.mem_ctrls.rdQLenPdf::26                      0                       # What read queue length does an incoming req see
system.mem_ctrls.rdQLenPdf::27                      0                       # What read queue length does an incoming req see
system.mem_ctrls.rdQLenPdf::28                      0                       # What read queue length does an incoming req see
system.mem_ctrls.rdQLenPdf::29                      0                       # What read queue length does an incoming req see
system.mem_ctrls.rdQLenPdf::30                      0                       # What read queue length does an incoming req see
system.mem_ctrls.rdQLenPdf::31                      0                       # What read queue length does an incoming req see
system.mem_ctrls.wrQLenPdf::0                       1                       # What write queue length does an incoming req see
system.mem_ctrls.wrQLenPdf::1                       1                       # What write queue length does an incoming req see
system.mem_ctrls.wrQLenPdf::2                       1                       # What write queue length does an incoming req see
system.mem_ctrls.wrQLenPdf::3                       1                       # What write queue length does an incoming req see
system.mem_ctrls.wrQLenPdf::4                       1                       # What write queue length does an incoming req see
system.mem_ctrls.wrQLenPdf::5                       1                       # What write queue length does an incoming req see
system.mem_ctrls.wrQLenPdf::6                       1                       # What write queue length does an incoming req see
system.mem_ctrls.wrQLenPdf::7                       1                       # What write queue length does an incoming req see
system.mem_ctrls.wrQLenPdf::8                       1                       # What write queue length does an incoming req see
system.mem_ctrls.wrQLenPdf::9                       1                       # What write queue length does an incoming req see
system.mem_ctrls.wrQLenPdf::10                      1                       # What write queue length does an incoming req see
system.mem_ctrls.wrQLenPdf::11                      1                       # What write queue length does an incoming req see
system.mem_ctrls.wrQLenPdf::12                      1                       # What write queue length does an incoming req see
system.mem_ctrls.wrQLenPdf::13                      1                       # What write queue length does an incoming req see
system.mem_ctrls.wrQLenPdf::14                      1                       # What write queue length does an incoming req see
system.mem_ctrls.wrQLenPdf::15                  17372                       # What write queue length does an incoming req see
system.mem_ctrls.wrQLenPdf::16                  17381                       # What write queue length does an incoming req see
system.mem_ctrls.wrQLenPdf::17                  17531                       # What write queue length does an incoming req see
system.mem_ctrls.wrQLenPdf::18                  17723                       # What write queue length does an incoming req see
system.mem_ctrls.wrQLenPdf::19                  18501                       # What write queue length does an incoming req see
system.mem_ctrls.wrQLenPdf::20                  20213                       # What write queue length does an incoming req see
system.mem_ctrls.wrQLenPdf::21                  31677                       # What write queue length does an incoming req see
system.mem_ctrls.wrQLenPdf::22                  61507                       # What write queue length does an incoming req see
system.mem_ctrls.wrQLenPdf::23                  61841                       # What write queue length does an incoming req see
system.mem_ctrls.wrQLenPdf::24                  42839                       # What write queue length does an incoming req see
system.mem_ctrls.wrQLenPdf::25                  42053                       # What write queue length does an incoming req see
system.mem_ctrls.wrQLenPdf::26                  42641                       # What write queue length does an incoming req see
system.mem_ctrls.wrQLenPdf::27                  47355                       # What write queue length does an incoming req see
system.mem_ctrls.wrQLenPdf::28                  55300                       # What write queue length does an incoming req see
system.mem_ctrls.wrQLenPdf::29                  54018                       # What write queue length does an incoming req see
system.mem_ctrls.wrQLenPdf::30                  46501                       # What write queue length does an incoming req see
system.mem_ctrls.wrQLenPdf::31                  41704                       # What write queue length does an incoming req see
system.mem_ctrls.wrQLenPdf::32                  40172                       # What write queue length does an incoming req see
system.mem_ctrls.wrQLenPdf::33                    765                       # What write queue length does an incoming req see
system.mem_ctrls.wrQLenPdf::34                    425                       # What write queue length does an incoming req see
system.mem_ctrls.wrQLenPdf::35                    251                       # What write queue length does an incoming req see
system.mem_ctrls.wrQLenPdf::36                     81                       # What write queue length does an incoming req see
system.mem_ctrls.wrQLenPdf::37                     40                       # What write queue length does an incoming req see
system.mem_ctrls.wrQLenPdf::38                      8                       # What write queue length does an incoming req see
system.mem_ctrls.wrQLenPdf::39                      3                       # What write queue length does an incoming req see
system.mem_ctrls.wrQLenPdf::40                      3                       # What write queue length does an incoming req see
system.mem_ctrls.wrQLenPdf::41                      0                       # What write queue length does an incoming req see
system.mem_ctrls.wrQLenPdf::42                      0                       # What write queue length does an incoming req see
system.mem_ctrls.wrQLenPdf::43                      0                       # What write queue length does an incoming req see
system.mem_ctrls.wrQLenPdf::44                      0                       # What write queue length does an incoming req see
system.mem_ctrls.wrQLenPdf::45                      0                       # What write queue length does an incoming req see
system.mem_ctrls.wrQLenPdf::46                      0                       # What write queue length does an incoming req see
system.mem_ctrls.wrQLenPdf::47                      0                       # What write queue length does an incoming req see
system.mem_ctrls.wrQLenPdf::48                      0                       # What write queue length does an incoming req see
system.mem_ctrls.wrQLenPdf::49                      0                       # What write queue length does an incoming req see
system.mem_ctrls.wrQLenPdf::50                      0                       # What write queue length does an incoming req see
system.mem_ctrls.wrQLenPdf::51                      0                       # What write queue length does an incoming req see
system.mem_ctrls.wrQLenPdf::52                      0                       # What write queue length does an incoming req see
system.mem_ctrls.wrQLenPdf::53                      0                       # What write queue length does an incoming req see
system.mem_ctrls.wrQLenPdf::54                      0                       # What write queue length does an incoming req see
system.mem_ctrls.wrQLenPdf::55                      0                       # What write queue length does an incoming req see
system.mem_ctrls.wrQLenPdf::56                      0                       # What write queue length does an incoming req see
system.mem_ctrls.wrQLenPdf::57                      0                       # What write queue length does an incoming req see
system.mem_ctrls.wrQLenPdf::58                      0                       # What write queue length does an incoming req see
system.mem_ctrls.wrQLenPdf::59                      0                       # What write queue length does an incoming req see
system.mem_ctrls.wrQLenPdf::60                      0                       # What write queue length does an incoming req see
system.mem_ctrls.wrQLenPdf::61                      0                       # What write queue length does an incoming req see
system.mem_ctrls.wrQLenPdf::62                      0                       # What write queue length does an incoming req see
system.mem_ctrls.wrQLenPdf::63                      0                       # What write queue length does an incoming req see
system.mem_ctrls.bytesPerActivate::samples       538329                       # Bytes accessed per row activation
system.mem_ctrls.bytesPerActivate::mean    161.184644                       # Bytes accessed per row activation
system.mem_ctrls.bytesPerActivate::gmean   115.312416                       # Bytes accessed per row activation
system.mem_ctrls.bytesPerActivate::stdev   150.494610                       # Bytes accessed per row activation
system.mem_ctrls.bytesPerActivate::0-127       311289     57.83%     57.83% # Bytes accessed per row activation
system.mem_ctrls.bytesPerActivate::128-255        92182     17.12%     74.95% # Bytes accessed per row activation
system.mem_ctrls.bytesPerActivate::256-383        63130     11.73%     86.68% # Bytes accessed per row activation
system.mem_ctrls.bytesPerActivate::384-511        38780      7.20%     93.88% # Bytes accessed per row activation
system.mem_ctrls.bytesPerActivate::512-639        26456      4.91%     98.79% # Bytes accessed per row activation
system.mem_ctrls.bytesPerActivate::640-767         4851      0.90%     99.70% # Bytes accessed per row activation
system.mem_ctrls.bytesPerActivate::768-895          809      0.15%     99.85% # Bytes accessed per row activation
system.mem_ctrls.bytesPerActivate::896-1023          258      0.05%     99.89% # Bytes accessed per row activation
system.mem_ctrls.bytesPerActivate::1024-1151          574      0.11%    100.00% # Bytes accessed per row activation
system.mem_ctrls.bytesPerActivate::total       538329                       # Bytes accessed per row activation
system.mem_ctrls.rdPerTurnAround::samples        39383                       # Reads before turning the bus around for writes
system.mem_ctrls.rdPerTurnAround::mean      17.213519                       # Reads before turning the bus around for writes
system.mem_ctrls.rdPerTurnAround::gmean     16.341471                       # Reads before turning the bus around for writes
system.mem_ctrls.rdPerTurnAround::stdev      5.375404                       # Reads before turning the bus around for writes
system.mem_ctrls.rdPerTurnAround::8-9              14      0.04%      0.04% # Reads before turning the bus around for writes
system.mem_ctrls.rdPerTurnAround::10-11         10221     25.95%     25.99% # Reads before turning the bus around for writes
system.mem_ctrls.rdPerTurnAround::12-13          2487      6.31%     32.30% # Reads before turning the bus around for writes
system.mem_ctrls.rdPerTurnAround::14-15          3886      9.87%     42.17% # Reads before turning the bus around for writes
system.mem_ctrls.rdPerTurnAround::16-17          5041     12.80%     54.97% # Reads before turning the bus around for writes
system.mem_ctrls.rdPerTurnAround::18-19          2869      7.28%     62.26% # Reads before turning the bus around for writes
system.mem_ctrls.rdPerTurnAround::20-21           946      2.40%     64.66% # Reads before turning the bus around for writes
system.mem_ctrls.rdPerTurnAround::22-23          5534     14.05%     78.71% # Reads before turning the bus around for writes
system.mem_ctrls.rdPerTurnAround::24-25          8351     21.20%     99.91% # Reads before turning the bus around for writes
system.mem_ctrls.rdPerTurnAround::26-27            33      0.08%    100.00% # Reads before turning the bus around for writes
system.mem_ctrls.rdPerTurnAround::36-37             1      0.00%    100.00% # Reads before turning the bus around for writes
system.mem_ctrls.rdPerTurnAround::total         39383                       # Reads before turning the bus around for writes
system.mem_ctrls.wrPerTurnAround::samples        39383                       # Writes before turning the bus around for reads
system.mem_ctrls.wrPerTurnAround::mean      17.213138                       # Writes before turning the bus around for reads
system.mem_ctrls.wrPerTurnAround::gmean     17.136372                       # Writes before turning the bus around for reads
system.mem_ctrls.wrPerTurnAround::stdev      1.727257                       # Writes before turning the bus around for reads
system.mem_ctrls.wrPerTurnAround::16            21982     55.82%     55.82% # Writes before turning the bus around for reads
system.mem_ctrls.wrPerTurnAround::17                8      0.02%     55.84% # Writes before turning the bus around for reads
system.mem_ctrls.wrPerTurnAround::18            10708     27.19%     83.03% # Writes before turning the bus around for reads
system.mem_ctrls.wrPerTurnAround::19             5146     13.07%     96.09% # Writes before turning the bus around for reads
system.mem_ctrls.wrPerTurnAround::20              408      1.04%     97.13% # Writes before turning the bus around for reads
system.mem_ctrls.wrPerTurnAround::21              149      0.38%     97.51% # Writes before turning the bus around for reads
system.mem_ctrls.wrPerTurnAround::22              145      0.37%     97.87% # Writes before turning the bus around for reads
system.mem_ctrls.wrPerTurnAround::23               39      0.10%     97.97% # Writes before turning the bus around for reads
system.mem_ctrls.wrPerTurnAround::24              114      0.29%     98.26% # Writes before turning the bus around for reads
system.mem_ctrls.wrPerTurnAround::25              358      0.91%     99.17% # Writes before turning the bus around for reads
system.mem_ctrls.wrPerTurnAround::26              325      0.83%    100.00% # Writes before turning the bus around for reads
system.mem_ctrls.wrPerTurnAround::27                1      0.00%    100.00% # Writes before turning the bus around for reads
system.mem_ctrls.wrPerTurnAround::total         39383                       # Writes before turning the bus around for reads
system.mem_ctrls.totQLat                  24000996821                       # Total ticks spent queuing
system.mem_ctrls.totMemAccLat             36711996821                       # Total ticks spent from burst creation until serviced by the DRAM
system.mem_ctrls.totBusLat                 3389600000                       # Total ticks spent in databus transfers
system.mem_ctrls.avgQLat                     35403.88                       # Average queueing delay per DRAM burst
system.mem_ctrls.avgBusLat                    5000.00                       # Average bus latency per DRAM burst
system.mem_ctrls.avgMemAccLat                54153.88                       # Average memory access latency per DRAM burst
system.mem_ctrls.avgRdBW                       541.38                       # Average DRAM read bandwidth in MiByte/s
system.mem_ctrls.avgWrBW                       541.37                       # Average achieved write bandwidth in MiByte/s
system.mem_ctrls.avgRdBWSys                    541.38                       # Average system read bandwidth in MiByte/s
system.mem_ctrls.avgWrBWSys                    541.38                       # Average system write bandwidth in MiByte/s
system.mem_ctrls.peakBW                      12800.00                       # Theoretical peak bandwidth in MiByte/s
system.mem_ctrls.busUtil                         8.46                       # Data bus utilization in percentage
system.mem_ctrls.busUtilRead                     4.23                       # Data bus utilization in percentage for reads
system.mem_ctrls.busUtilWrite                    4.23                       # Data bus utilization in percentage for writes
system.mem_ctrls.avgRdQLen                       3.26                       # Average read queue length when enqueuing
system.mem_ctrls.avgWrQLen                      26.84                       # Average write queue length when enqueuing
system.mem_ctrls.readRowHits                   290037                       # Number of row buffer hits during reads
system.mem_ctrls.writeRowHits                  527447                       # Number of row buffer hits during writes
system.mem_ctrls.readRowHitRate                 42.78                       # Row buffer hit rate for reads
system.mem_ctrls.writeRowHitRate                77.80                       # Row buffer hit rate for writes
system.mem_ctrls.avgGap                      59107.07                       # Average gap between requests
system.mem_ctrls.pageHitRate                    60.29                       # Row buffer hit rate, read and write combined
system.mem_ctrls_0.actEnergy               1919267700                       # Energy for activate commands per rank (pJ)
system.mem_ctrls_0.preEnergy               1020092205                       # Energy for precharge commands per rank (pJ)
system.mem_ctrls_0.readEnergy              2417604000                       # Energy for read commands per rank (pJ)
system.mem_ctrls_0.writeEnergy             1769569560                       # Energy for write commands per rank (pJ)
system.mem_ctrls_0.refreshEnergy         6325874880.000001                       # Energy for refresh commands per rank (pJ)
system.mem_ctrls_0.actBackEnergy          13915755990                       # Energy for active background per rank (pJ)
system.mem_ctrls_0.preBackEnergy            142057440                       # Energy for precharge background per rank (pJ)
system.mem_ctrls_0.actPowerDownEnergy     21324975090                       # Energy for active power-down per rank (pJ)
system.mem_ctrls_0.prePowerDownEnergy       955802400                       # Energy for precharge power-down per rank (pJ)
system.mem_ctrls_0.selfRefreshEnergy                0                       # Energy for self refresh per rank (pJ)
system.mem_ctrls_0.totalEnergy            49790999265                       # Total energy per rank (pJ)
system.mem_ctrls_0.averagePower            621.290021                       # Core power per rank (mW)
system.mem_ctrls_0.totalIdleTime          49251952934                       # Total Idle time Per DRAM Rank
system.mem_ctrls_0.memoryStateTime::IDLE     62066455                       # Time in different power states
system.mem_ctrls_0.memoryStateTime::REF    2675920000                       # Time in different power states
system.mem_ctrls_0.memoryStateTime::SREF            0                       # Time in different power states
system.mem_ctrls_0.memoryStateTime::PRE_PDN   2486010754                       # Time in different power states
system.mem_ctrls_0.memoryStateTime::ACT   28151375611                       # Time in different power states
system.mem_ctrls_0.memoryStateTime::ACT_PDN  46765942180                       # Time in different power states
system.mem_ctrls_1.actEnergy               1924487040                       # Energy for activate commands per rank (pJ)
system.mem_ctrls_1.preEnergy               1022866350                       # Energy for precharge commands per rank (pJ)
system.mem_ctrls_1.readEnergy              2422744800                       # Energy for read commands per rank (pJ)
system.mem_ctrls_1.writeEnergy             1769094540                       # Energy for write commands per rank (pJ)
system.mem_ctrls_1.refreshEnergy         6325874880.000001                       # Energy for refresh commands per rank (pJ)
system.mem_ctrls_1.actBackEnergy          13908643530                       # Energy for active background per rank (pJ)
system.mem_ctrls_1.preBackEnergy            146520960                       # Energy for precharge background per rank (pJ)
system.mem_ctrls_1.actPowerDownEnergy     21328025730                       # Energy for active power-down per rank (pJ)
system.mem_ctrls_1.prePowerDownEnergy       954759360                       # Energy for precharge power-down per rank (pJ)
system.mem_ctrls_1.selfRefreshEnergy                0                       # Energy for self refresh per rank (pJ)
system.mem_ctrls_1.totalEnergy            49803017190                       # Total energy per rank (pJ)
system.mem_ctrls_1.averagePower            621.439980                       # Core power per rank (mW)
system.mem_ctrls_1.totalIdleTime          49255827304                       # Total Idle time Per DRAM Rank
system.mem_ctrls_1.memoryStateTime::IDLE     73099663                       # Time in different power states
system.mem_ctrls_1.memoryStateTime::REF    2675920000                       # Time in different power states
system.mem_ctrls_1.memoryStateTime::SREF            0                       # Time in different power states
system.mem_ctrls_1.memoryStateTime::PRE_PDN   2483314205                       # Time in different power states
system.mem_ctrls_1.memoryStateTime::ACT   28136468033                       # Time in different power states
system.mem_ctrls_1.memoryStateTime::ACT_PDN  46772513099                       # Time in different power states
system.pwrStateResidencyTicks::UNDEFINED  93876576500                       # Cumulative time (in ticks) in various power states
system.cpu_voltage_domain.voltage                   1                       # Voltage in Volts
system.cpu_clk_domain.clock                       500                       # Clock period in ticks
system.cpu.dtb.walker.pwrStateResidencyTicks::UNDEFINED  93876576500                       # Cumulative time (in ticks) in various power states
system.cpu.apic_clk_domain.clock                 8000                       # Clock period in ticks
system.cpu.interrupts.pwrStateResidencyTicks::UNDEFINED  93876576500                       # Cumulative time (in ticks) in various power states
system.cpu.itb.walker.pwrStateResidencyTicks::UNDEFINED  93876576500                       # Cumulative time (in ticks) in various power states
system.cpu.workload.numSyscalls                     0                       # Number of system calls
system.cpu.pwrStateResidencyTicks::ON     93876576500                       # Cumulative time (in ticks) in various power states
system.cpu.numCycles                                0                       # number of cpu cycles simulated
system.cpu.numWorkItemsStarted                      0                       # number of work items this cpu started
system.cpu.numWorkItemsCompleted                    0                       # number of work items this cpu completed
system.cpu.committedInsts                           0                       # Number of instructions committed
system.cpu.committedOps                             0                       # Number of ops (including micro ops) committed
system.cpu.num_int_alu_accesses                     0                       # Number of integer alu accesses
system.cpu.num_fp_alu_accesses                      0                       # Number of float alu accesses
system.cpu.num_func_calls                           0                       # number of times a function call or return occured
system.cpu.num_conditional_control_insts            0                       # number of instructions that are conditional controls
system.cpu.num_int_insts                            0                       # number of integer instructions
system.cpu.num_fp_insts                             0                       # number of float instructions
system.cpu.num_int_register_reads                   0                       # number of times the integer registers were read
system.cpu.num_int_register_writes                  0                       # number of times the integer registers were written
system.cpu.num_fp_register_reads                    0                       # number of times the floating registers were read
system.cpu.num_fp_register_writes                   0                       # number of times the floating registers were written
system.cpu.num_mem_refs                             0                       # number of memory refs
system.cpu.num_load_insts                           0                       # Number of load instructions
system.cpu.num_store_insts                          0                       # Number of store instructions
system.cpu.num_idle_cycles                          0                       # Number of idle cycles
system.cpu.num_busy_cycles                          0                       # Number of busy cycles
system.cpu.not_idle_fraction                        1                       # Percentage of non-idle cycles
system.cpu.idle_fraction                            0                       # Percentage of idle cycles
system.cpu.op_class::No_OpClass                     0                       # Class of executed instruction
system.cpu.op_class::IntAlu                         0                       # Class of executed instruction
system.cpu.op_class::IntMult                        0                       # Class of executed instruction
system.cpu.op_class::IntDiv                         0                       # Class of executed instruction
system.cpu.op_class::FloatAdd                       0                       # Class of executed instruction
system.cpu.op_class::FloatCmp                       0                       # Class of executed instruction
system.cpu.op_class::FloatCvt                       0                       # Class of executed instruction
system.cpu.op_class::FloatMult                      0                       # Class of executed instruction
system.cpu.op_class::FloatMultAcc                   0                       # Class of executed instruction
system.cpu.op_class::FloatDiv                       0                       # Class of executed instruction
system.cpu.op_class::FloatMisc                      0                       # Class of executed instruction
system.cpu.op_class::FloatSqrt                      0                       # Class of executed instruction
system.cpu.op_class::SimdAdd                        0                       # Class of executed instruction
system.cpu.op_class::SimdAddAcc                     0                       # Class of executed instruction
system.cpu.op_class::SimdAlu                        0                       # Class of executed instruction
system.cpu.op_class::SimdCmp                        0                       # Class of executed instruction
system.cpu.op_class::SimdCvt                        0                       # Class of executed instruction
system.cpu.op_class::SimdMisc                       0                       # Class of executed instruction
system.cpu.op_class::SimdMult                       0                       # Class of executed instruction
system.cpu.op_class::SimdMultAcc                    0                       # Class of executed instruction
system.cpu.op_class::SimdShift                      0                       # Class of executed instruction
system.cpu.op_class::SimdShiftAcc                   0                       # Class of executed instruction
system.cpu.op_class::SimdSqrt                       0                       # Class of executed instruction
system.cpu.op_class::SimdFloatAdd                   0                       # Class of executed instruction
system.cpu.op_class::SimdFloatAlu                   0                       # Class of executed instruction
system.cpu.op_class::SimdFloatCmp                   0                       # Class of executed instruction
system.cpu.op_class::SimdFloatCvt                   0                       # Class of executed instruction
system.cpu.op_class::SimdFloatDiv                   0                       # Class of executed instruction
system.cpu.op_class::SimdFloatMisc                  0                       # Class of executed instruction
system.cpu.op_class::SimdFloatMult                  0                       # Class of executed instruction
system.cpu.op_class::SimdFloatMultAcc               0                       # Class of executed instruction
system.cpu.op_class::SimdFloatSqrt                  0                       # Class of executed instruction
system.cpu.op_class::MemRead                        0                       # Class of executed instruction
system.cpu.op_class::MemWrite                       0                       # Class of executed instruction
system.cpu.op_class::FloatMemRead                   0                       # Class of executed instruction
system.cpu.op_class::FloatMemWrite                  0                       # Class of executed instruction
system.cpu.op_class::IprAccess                      0                       # Class of executed instruction
system.cpu.op_class::InstPrefetch                   0                       # Class of executed instruction
system.cpu.op_class::total                          0                       # Class of executed instruction
system.cpu.dcache.tags.pwrStateResidencyTicks::UNDEFINED  93876576500                       # Cumulative time (in ticks) in various power states
system.cpu.dcache.tags.replacements           4584626                       # number of replacements
system.cpu.dcache.tags.tagsinuse                  512                       # Cycle average of tags in use
system.cpu.dcache.tags.total_refs             1728796                       # Total number of references to valid blocks.
system.cpu.dcache.tags.sampled_refs           4585138                       # Sample count of references to valid blocks.
system.cpu.dcache.tags.avg_refs              0.377043                       # Average number of references to valid blocks.
system.cpu.dcache.tags.warmup_cycle                 0                       # Cycle when the warmup percentage was hit.
system.cpu.dcache.tags.occ_blocks::cpu.data     0.642156                       # Average occupied blocks per requestor
system.cpu.dcache.tags.occ_blocks::switch_cpus.data   511.357844                       # Average occupied blocks per requestor
system.cpu.dcache.tags.occ_percent::cpu.data     0.001254                       # Average percentage of cache occupancy
system.cpu.dcache.tags.occ_percent::switch_cpus.data     0.998746                       # Average percentage of cache occupancy
system.cpu.dcache.tags.occ_percent::total            1                       # Average percentage of cache occupancy
system.cpu.dcache.tags.occ_task_id_blocks::1024          512                       # Occupied blocks per task id
system.cpu.dcache.tags.age_task_id_blocks_1024::0           38                       # Occupied blocks per task id
system.cpu.dcache.tags.age_task_id_blocks_1024::1          267                       # Occupied blocks per task id
system.cpu.dcache.tags.age_task_id_blocks_1024::2          207                       # Occupied blocks per task id
system.cpu.dcache.tags.occ_task_id_percent::1024            1                       # Percentage of cache occupancy per task id
system.cpu.dcache.tags.tag_accesses          17206718                       # Number of tag accesses
system.cpu.dcache.tags.data_accesses         17206718                       # Number of data accesses
system.cpu.dcache.pwrStateResidencyTicks::UNDEFINED  93876576500                       # Cumulative time (in ticks) in various power states
system.cpu.dcache.ReadReq_hits::switch_cpus.data       519076                       # number of ReadReq hits
system.cpu.dcache.ReadReq_hits::total          519076                       # number of ReadReq hits
system.cpu.dcache.WriteReq_hits::switch_cpus.data      1207344                       # number of WriteReq hits
system.cpu.dcache.WriteReq_hits::total        1207344                       # number of WriteReq hits
system.cpu.dcache.demand_hits::switch_cpus.data      1726420                       # number of demand (read+write) hits
system.cpu.dcache.demand_hits::total          1726420                       # number of demand (read+write) hits
system.cpu.dcache.overall_hits::switch_cpus.data      1726420                       # number of overall hits
system.cpu.dcache.overall_hits::total         1726420                       # number of overall hits
system.cpu.dcache.ReadReq_misses::switch_cpus.data         3669                       # number of ReadReq misses
system.cpu.dcache.ReadReq_misses::total          3669                       # number of ReadReq misses
system.cpu.dcache.WriteReq_misses::switch_cpus.data      4580957                       # number of WriteReq misses
system.cpu.dcache.WriteReq_misses::total      4580957                       # number of WriteReq misses
system.cpu.dcache.demand_misses::switch_cpus.data      4584626                       # number of demand (read+write) misses
system.cpu.dcache.demand_misses::total        4584626                       # number of demand (read+write) misses
system.cpu.dcache.overall_misses::switch_cpus.data      4584626                       # number of overall misses
system.cpu.dcache.overall_misses::total       4584626                       # number of overall misses
system.cpu.dcache.ReadReq_miss_latency::switch_cpus.data     47697000                       # number of ReadReq miss cycles
system.cpu.dcache.ReadReq_miss_latency::total     47697000                       # number of ReadReq miss cycles
system.cpu.dcache.WriteReq_miss_latency::switch_cpus.data  61324891500                       # number of WriteReq miss cycles
system.cpu.dcache.WriteReq_miss_latency::total  61324891500                       # number of WriteReq miss cycles
system.cpu.dcache.demand_miss_latency::switch_cpus.data  61372588500                       # number of demand (read+write) miss cycles
system.cpu.dcache.demand_miss_latency::total  61372588500                       # number of demand (read+write) miss cycles
system.cpu.dcache.overall_miss_latency::switch_cpus.data  61372588500                       # number of overall miss cycles
system.cpu.dcache.overall_miss_latency::total  61372588500                       # number of overall miss cycles
system.cpu.dcache.ReadReq_accesses::switch_cpus.data       522745                       # number of ReadReq accesses(hits+misses)
system.cpu.dcache.ReadReq_accesses::total       522745                       # number of ReadReq accesses(hits+misses)
system.cpu.dcache.WriteReq_accesses::switch_cpus.data      5788301                       # number of WriteReq accesses(hits+misses)
system.cpu.dcache.WriteReq_accesses::total      5788301                       # number of WriteReq accesses(hits+misses)
system.cpu.dcache.demand_accesses::switch_cpus.data      6311046                       # number of demand (read+write) accesses
system.cpu.dcache.demand_accesses::total      6311046                       # number of demand (read+write) accesses
system.cpu.dcache.overall_accesses::switch_cpus.data      6311046                       # number of overall (read+write) accesses
system.cpu.dcache.overall_accesses::total      6311046                       # number of overall (read+write) accesses
system.cpu.dcache.ReadReq_miss_rate::switch_cpus.data     0.007019                       # miss rate for ReadReq accesses
system.cpu.dcache.ReadReq_miss_rate::total     0.007019                       # miss rate for ReadReq accesses
system.cpu.dcache.WriteReq_miss_rate::switch_cpus.data     0.791417                       # miss rate for WriteReq accesses
system.cpu.dcache.WriteReq_miss_rate::total     0.791417                       # miss rate for WriteReq accesses
system.cpu.dcache.demand_miss_rate::switch_cpus.data     0.726445                       # miss rate for demand accesses
system.cpu.dcache.demand_miss_rate::total     0.726445                       # miss rate for demand accesses
system.cpu.dcache.overall_miss_rate::switch_cpus.data     0.726445                       # miss rate for overall accesses
system.cpu.dcache.overall_miss_rate::total     0.726445                       # miss rate for overall accesses
system.cpu.dcache.ReadReq_avg_miss_latency::switch_cpus.data        13000                       # average ReadReq miss latency
system.cpu.dcache.ReadReq_avg_miss_latency::total        13000                       # average ReadReq miss latency
system.cpu.dcache.WriteReq_avg_miss_latency::switch_cpus.data 13386.917079                       # average WriteReq miss latency
system.cpu.dcache.WriteReq_avg_miss_latency::total 13386.917079                       # average WriteReq miss latency
system.cpu.dcache.demand_avg_miss_latency::switch_cpus.data 13386.607435                       # average overall miss latency
system.cpu.dcache.demand_avg_miss_latency::total 13386.607435                       # average overall miss latency
system.cpu.dcache.overall_avg_miss_latency::switch_cpus.data 13386.607435                       # average overall miss latency
system.cpu.dcache.overall_avg_miss_latency::total 13386.607435                       # average overall miss latency
system.cpu.dcache.blocked_cycles::no_mshrs            0                       # number of cycles access was blocked
system.cpu.dcache.blocked_cycles::no_targets            0                       # number of cycles access was blocked
system.cpu.dcache.blocked::no_mshrs                 0                       # number of cycles access was blocked
system.cpu.dcache.blocked::no_targets               0                       # number of cycles access was blocked
system.cpu.dcache.avg_blocked_cycles::no_mshrs          nan                       # average number of cycles each access was blocked
system.cpu.dcache.avg_blocked_cycles::no_targets          nan                       # average number of cycles each access was blocked
system.cpu.dcache.writebacks::writebacks      4584626                       # number of writebacks
system.cpu.dcache.writebacks::total           4584626                       # number of writebacks
system.cpu.dcache.ReadReq_mshr_misses::switch_cpus.data         3669                       # number of ReadReq MSHR misses
system.cpu.dcache.ReadReq_mshr_misses::total         3669                       # number of ReadReq MSHR misses
system.cpu.dcache.WriteReq_mshr_misses::switch_cpus.data      4580957                       # number of WriteReq MSHR misses
system.cpu.dcache.WriteReq_mshr_misses::total      4580957                       # number of WriteReq MSHR misses
system.cpu.dcache.demand_mshr_misses::switch_cpus.data      4584626                       # number of demand (read+write) MSHR misses
system.cpu.dcache.demand_mshr_misses::total      4584626                       # number of demand (read+write) MSHR misses
system.cpu.dcache.overall_mshr_misses::switch_cpus.data      4584626                       # number of overall MSHR misses
system.cpu.dcache.overall_mshr_misses::total      4584626                       # number of overall MSHR misses
system.cpu.dcache.ReadReq_mshr_miss_latency::switch_cpus.data     44028000                       # number of ReadReq MSHR miss cycles
system.cpu.dcache.ReadReq_mshr_miss_latency::total     44028000                       # number of ReadReq MSHR miss cycles
system.cpu.dcache.WriteReq_mshr_miss_latency::switch_cpus.data  56743934500                       # number of WriteReq MSHR miss cycles
system.cpu.dcache.WriteReq_mshr_miss_latency::total  56743934500                       # number of WriteReq MSHR miss cycles
system.cpu.dcache.demand_mshr_miss_latency::switch_cpus.data  56787962500                       # number of demand (read+write) MSHR miss cycles
system.cpu.dcache.demand_mshr_miss_latency::total  56787962500                       # number of demand (read+write) MSHR miss cycles
system.cpu.dcache.overall_mshr_miss_latency::switch_cpus.data  56787962500                       # number of overall MSHR miss cycles
system.cpu.dcache.overall_mshr_miss_latency::total  56787962500                       # number of overall MSHR miss cycles
system.cpu.dcache.ReadReq_mshr_miss_rate::switch_cpus.data     0.007019                       # mshr miss rate for ReadReq accesses
system.cpu.dcache.ReadReq_mshr_miss_rate::total     0.007019                       # mshr miss rate for ReadReq accesses
system.cpu.dcache.WriteReq_mshr_miss_rate::switch_cpus.data     0.791417                       # mshr miss rate for WriteReq accesses
system.cpu.dcache.WriteReq_mshr_miss_rate::total     0.791417                       # mshr miss rate for WriteReq accesses
system.cpu.dcache.demand_mshr_miss_rate::switch_cpus.data     0.726445                       # mshr miss rate for demand accesses
system.cpu.dcache.demand_mshr_miss_rate::total     0.726445                       # mshr miss rate for demand accesses
system.cpu.dcache.overall_mshr_miss_rate::switch_cpus.data     0.726445                       # mshr miss rate for overall accesses
system.cpu.dcache.overall_mshr_miss_rate::total     0.726445                       # mshr miss rate for overall accesses
system.cpu.dcache.ReadReq_avg_mshr_miss_latency::switch_cpus.data        12000                       # average ReadReq mshr miss latency
system.cpu.dcache.ReadReq_avg_mshr_miss_latency::total        12000                       # average ReadReq mshr miss latency
system.cpu.dcache.WriteReq_avg_mshr_miss_latency::switch_cpus.data 12386.917079                       # average WriteReq mshr miss latency
system.cpu.dcache.WriteReq_avg_mshr_miss_latency::total 12386.917079                       # average WriteReq mshr miss latency
system.cpu.dcache.demand_avg_mshr_miss_latency::switch_cpus.data 12386.607435                       # average overall mshr miss latency
system.cpu.dcache.demand_avg_mshr_miss_latency::total 12386.607435                       # average overall mshr miss latency
system.cpu.dcache.overall_avg_mshr_miss_latency::switch_cpus.data 12386.607435                       # average overall mshr miss latency
system.cpu.dcache.overall_avg_mshr_miss_latency::total 12386.607435                       # average overall mshr miss latency
system.cpu.dtb_walker_cache.tags.pwrStateResidencyTicks::UNDEFINED  93876576500                       # Cumulative time (in ticks) in various power states
system.cpu.dtb_walker_cache.tags.replacements            0                       # number of replacements
system.cpu.dtb_walker_cache.tags.tagsinuse            0                       # Cycle average of tags in use
system.cpu.dtb_walker_cache.tags.total_refs            0                       # Total number of references to valid blocks.
system.cpu.dtb_walker_cache.tags.sampled_refs            0                       # Sample count of references to valid blocks.
system.cpu.dtb_walker_cache.tags.avg_refs          nan                       # Average number of references to valid blocks.
system.cpu.dtb_walker_cache.tags.warmup_cycle            0                       # Cycle when the warmup percentage was hit.
system.cpu.dtb_walker_cache.tags.tag_accesses            0                       # Number of tag accesses
system.cpu.dtb_walker_cache.tags.data_accesses            0                       # Number of data accesses
system.cpu.dtb_walker_cache.pwrStateResidencyTicks::UNDEFINED  93876576500                       # Cumulative time (in ticks) in various power states
system.cpu.dtb_walker_cache.blocked_cycles::no_mshrs            0                       # number of cycles access was blocked
system.cpu.dtb_walker_cache.blocked_cycles::no_targets            0                       # number of cycles access was blocked
system.cpu.dtb_walker_cache.blocked::no_mshrs            0                       # number of cycles access was blocked
system.cpu.dtb_walker_cache.blocked::no_targets            0                       # number of cycles access was blocked
system.cpu.dtb_walker_cache.avg_blocked_cycles::no_mshrs          nan                       # average number of cycles each access was blocked
system.cpu.dtb_walker_cache.avg_blocked_cycles::no_targets          nan                       # average number of cycles each access was blocked
system.cpu.icache.tags.pwrStateResidencyTicks::UNDEFINED  93876576500                       # Cumulative time (in ticks) in various power states
system.cpu.icache.tags.replacements                 0                       # number of replacements
system.cpu.icache.tags.tagsinuse                  443                       # Cycle average of tags in use
system.cpu.icache.tags.total_refs            34031849                       # Total number of references to valid blocks.
system.cpu.icache.tags.sampled_refs               443                       # Sample count of references to valid blocks.
system.cpu.icache.tags.avg_refs          76821.329571                       # Average number of references to valid blocks.
system.cpu.icache.tags.warmup_cycle                 0                       # Cycle when the warmup percentage was hit.
system.cpu.icache.tags.occ_blocks::cpu.inst          443                       # Average occupied blocks per requestor
system.cpu.icache.tags.occ_percent::cpu.inst     0.865234                       # Average percentage of cache occupancy
system.cpu.icache.tags.occ_percent::total     0.865234                       # Average percentage of cache occupancy
system.cpu.icache.tags.occ_task_id_blocks::1024          443                       # Occupied blocks per task id
system.cpu.icache.tags.age_task_id_blocks_1024::4          443                       # Occupied blocks per task id
system.cpu.icache.tags.occ_task_id_percent::1024     0.865234                       # Percentage of cache occupancy per task id
system.cpu.icache.tags.tag_accesses          34084558                       # Number of tag accesses
system.cpu.icache.tags.data_accesses         34084558                       # Number of data accesses
system.cpu.icache.pwrStateResidencyTicks::UNDEFINED  93876576500                       # Cumulative time (in ticks) in various power states
system.cpu.icache.ReadReq_hits::switch_cpus.inst     17042279                       # number of ReadReq hits
system.cpu.icache.ReadReq_hits::total        17042279                       # number of ReadReq hits
system.cpu.icache.demand_hits::switch_cpus.inst     17042279                       # number of demand (read+write) hits
system.cpu.icache.demand_hits::total         17042279                       # number of demand (read+write) hits
system.cpu.icache.overall_hits::switch_cpus.inst     17042279                       # number of overall hits
system.cpu.icache.overall_hits::total        17042279                       # number of overall hits
system.cpu.icache.ReadReq_accesses::switch_cpus.inst     17042279                       # number of ReadReq accesses(hits+misses)
system.cpu.icache.ReadReq_accesses::total     17042279                       # number of ReadReq accesses(hits+misses)
system.cpu.icache.demand_accesses::switch_cpus.inst     17042279                       # number of demand (read+write) accesses
system.cpu.icache.demand_accesses::total     17042279                       # number of demand (read+write) accesses
system.cpu.icache.overall_accesses::switch_cpus.inst     17042279                       # number of overall (read+write) accesses
system.cpu.icache.overall_accesses::total     17042279                       # number of overall (read+write) accesses
system.cpu.icache.blocked_cycles::no_mshrs            0                       # number of cycles access was blocked
system.cpu.icache.blocked_cycles::no_targets            0                       # number of cycles access was blocked
system.cpu.icache.blocked::no_mshrs                 0                       # number of cycles access was blocked
system.cpu.icache.blocked::no_targets               0                       # number of cycles access was blocked
system.cpu.icache.avg_blocked_cycles::no_mshrs          nan                       # average number of cycles each access was blocked
system.cpu.icache.avg_blocked_cycles::no_targets          nan                       # average number of cycles each access was blocked
system.cpu.itb_walker_cache.tags.pwrStateResidencyTicks::UNDEFINED  93876576500                       # Cumulative time (in ticks) in various power states
system.cpu.itb_walker_cache.tags.replacements            0                       # number of replacements
system.cpu.itb_walker_cache.tags.tagsinuse            0                       # Cycle average of tags in use
system.cpu.itb_walker_cache.tags.total_refs            0                       # Total number of references to valid blocks.
system.cpu.itb_walker_cache.tags.sampled_refs            0                       # Sample count of references to valid blocks.
system.cpu.itb_walker_cache.tags.avg_refs          nan                       # Average number of references to valid blocks.
system.cpu.itb_walker_cache.tags.warmup_cycle            0                       # Cycle when the warmup percentage was hit.
system.cpu.itb_walker_cache.tags.tag_accesses            0                       # Number of tag accesses
system.cpu.itb_walker_cache.tags.data_accesses            0                       # Number of data accesses
system.cpu.itb_walker_cache.pwrStateResidencyTicks::UNDEFINED  93876576500                       # Cumulative time (in ticks) in various power states
system.cpu.itb_walker_cache.blocked_cycles::no_mshrs            0                       # number of cycles access was blocked
system.cpu.itb_walker_cache.blocked_cycles::no_targets            0                       # number of cycles access was blocked
system.cpu.itb_walker_cache.blocked::no_mshrs            0                       # number of cycles access was blocked
system.cpu.itb_walker_cache.blocked::no_targets            0                       # number of cycles access was blocked
system.cpu.itb_walker_cache.avg_blocked_cycles::no_mshrs          nan                       # average number of cycles each access was blocked
system.cpu.itb_walker_cache.avg_blocked_cycles::no_targets          nan                       # average number of cycles each access was blocked
system.l2.prefetcher.pwrStateResidencyTicks::UNDEFINED  93876576500                       # Cumulative time (in ticks) in various power states
system.l2.prefetcher.num_hwpf_issued          2580062                       # number of hwpf issued
system.l2.prefetcher.pfIdentified             2580062                       # number of prefetch candidates identified
system.l2.prefetcher.pfBufferHit                    0                       # number of redundant prefetches already in prefetch queue
system.l2.prefetcher.pfInCache                      0                       # number of redundant prefetches already in cache/mshr dropped
system.l2.prefetcher.pfRemovedFull                  0                       # number of prefetches dropped due to prefetch queue size
system.l2.prefetcher.pfSpanPage                105890                       # number of prefetches not generated due to page crossing
system.l2.tags.pwrStateResidencyTicks::UNDEFINED  93876576500                       # Cumulative time (in ticks) in various power states
system.l2.tags.replacements                    679607                       # number of replacements
system.l2.tags.tagsinuse                         4096                       # Cycle average of tags in use
system.l2.tags.total_refs                     9209711                       # Total number of references to valid blocks.
system.l2.tags.sampled_refs                    683703                       # Sample count of references to valid blocks.
system.l2.tags.avg_refs                     13.470339                       # Average number of references to valid blocks.
system.l2.tags.warmup_cycle                         0                       # Cycle when the warmup percentage was hit.
system.l2.tags.occ_blocks::writebacks        7.928404                       # Average occupied blocks per requestor
system.l2.tags.occ_blocks::cpu.data         18.911308                       # Average occupied blocks per requestor
system.l2.tags.occ_blocks::l2.prefetcher  3973.122879                       # Average occupied blocks per requestor
system.l2.tags.occ_blocks::switch_cpus.data    96.037409                       # Average occupied blocks per requestor
system.l2.tags.occ_percent::writebacks       0.001936                       # Average percentage of cache occupancy
system.l2.tags.occ_percent::cpu.data         0.004617                       # Average percentage of cache occupancy
system.l2.tags.occ_percent::l2.prefetcher     0.970001                       # Average percentage of cache occupancy
system.l2.tags.occ_percent::switch_cpus.data     0.023447                       # Average percentage of cache occupancy
system.l2.tags.occ_percent::total                   1                       # Average percentage of cache occupancy
system.l2.tags.occ_task_id_blocks::1022          3977                       # Occupied blocks per task id
system.l2.tags.occ_task_id_blocks::1024           119                       # Occupied blocks per task id
system.l2.tags.age_task_id_blocks_1022::0           85                       # Occupied blocks per task id
system.l2.tags.age_task_id_blocks_1022::1          731                       # Occupied blocks per task id
system.l2.tags.age_task_id_blocks_1022::2         3161                       # Occupied blocks per task id
system.l2.tags.age_task_id_blocks_1024::0            1                       # Occupied blocks per task id
system.l2.tags.age_task_id_blocks_1024::1           23                       # Occupied blocks per task id
system.l2.tags.age_task_id_blocks_1024::2           86                       # Occupied blocks per task id
system.l2.tags.age_task_id_blocks_1024::3            3                       # Occupied blocks per task id
system.l2.tags.age_task_id_blocks_1024::4            6                       # Occupied blocks per task id
system.l2.tags.occ_task_id_percent::1022     0.970947                       # Percentage of cache occupancy per task id
system.l2.tags.occ_task_id_percent::1024     0.029053                       # Percentage of cache occupancy per task id
system.l2.tags.tag_accesses                  74033623                       # Number of tag accesses
system.l2.tags.data_accesses                 74033623                       # Number of data accesses
system.l2.pwrStateResidencyTicks::UNDEFINED  93876576500                       # Cumulative time (in ticks) in various power states
system.l2.WritebackDirty_hits::writebacks      4584626                       # number of WritebackDirty hits
system.l2.WritebackDirty_hits::total          4584626                       # number of WritebackDirty hits
system.l2.ReadExReq_hits::switch_cpus.data      4563969                       # number of ReadExReq hits
system.l2.ReadExReq_hits::total               4563969                       # number of ReadExReq hits
system.l2.ReadSharedReq_hits::switch_cpus.data         3669                       # number of ReadSharedReq hits
system.l2.ReadSharedReq_hits::total              3669                       # number of ReadSharedReq hits
system.l2.demand_hits::switch_cpus.data       4567638                       # number of demand (read+write) hits
system.l2.demand_hits::total                  4567638                       # number of demand (read+write) hits
system.l2.overall_hits::switch_cpus.data      4567638                       # number of overall hits
system.l2.overall_hits::total                 4567638                       # number of overall hits
system.l2.ReadExReq_misses::switch_cpus.data        16988                       # number of ReadExReq misses
system.l2.ReadExReq_misses::total               16988                       # number of ReadExReq misses
system.l2.demand_misses::switch_cpus.data        16988                       # number of demand (read+write) misses
system.l2.demand_misses::total                  16988                       # number of demand (read+write) misses
system.l2.overall_misses::switch_cpus.data        16988                       # number of overall misses
system.l2.overall_misses::total                 16988                       # number of overall misses
system.l2.ReadExReq_miss_latency::switch_cpus.data   1950824500                       # number of ReadExReq miss cycles
system.l2.ReadExReq_miss_latency::total    1950824500                       # number of ReadExReq miss cycles
system.l2.demand_miss_latency::switch_cpus.data   1950824500                       # number of demand (read+write) miss cycles
system.l2.demand_miss_latency::total       1950824500                       # number of demand (read+write) miss cycles
system.l2.overall_miss_latency::switch_cpus.data   1950824500                       # number of overall miss cycles
system.l2.overall_miss_latency::total      1950824500                       # number of overall miss cycles
system.l2.WritebackDirty_accesses::writebacks      4584626                       # number of WritebackDirty accesses(hits+misses)
system.l2.WritebackDirty_accesses::total      4584626                       # number of WritebackDirty accesses(hits+misses)
system.l2.ReadExReq_accesses::switch_cpus.data      4580957                       # number of ReadExReq accesses(hits+misses)
system.l2.ReadExReq_accesses::total           4580957                       # number of ReadExReq accesses(hits+misses)
system.l2.ReadSharedReq_accesses::switch_cpus.data         3669                       # number of ReadSharedReq accesses(hits+misses)
system.l2.ReadSharedReq_accesses::total          3669                       # number of ReadSharedReq accesses(hits+misses)
system.l2.demand_accesses::switch_cpus.data      4584626                       # number of demand (read+write) accesses
system.l2.demand_accesses::total              4584626                       # number of demand (read+write) accesses
system.l2.overall_accesses::switch_cpus.data      4584626                       # number of overall (read+write) accesses
system.l2.overall_accesses::total             4584626                       # number of overall (read+write) accesses
system.l2.ReadExReq_miss_rate::switch_cpus.data     0.003708                       # miss rate for ReadExReq accesses
system.l2.ReadExReq_miss_rate::total         0.003708                       # miss rate for ReadExReq accesses
system.l2.demand_miss_rate::switch_cpus.data     0.003705                       # miss rate for demand accesses
system.l2.demand_miss_rate::total            0.003705                       # miss rate for demand accesses
system.l2.overall_miss_rate::switch_cpus.data     0.003705                       # miss rate for overall accesses
system.l2.overall_miss_rate::total           0.003705                       # miss rate for overall accesses
system.l2.ReadExReq_avg_miss_latency::switch_cpus.data 114835.442665                       # average ReadExReq miss latency
system.l2.ReadExReq_avg_miss_latency::total 114835.442665                       # average ReadExReq miss latency
system.l2.demand_avg_miss_latency::switch_cpus.data 114835.442665                       # average overall miss latency
system.l2.demand_avg_miss_latency::total 114835.442665                       # average overall miss latency
system.l2.overall_avg_miss_latency::switch_cpus.data 114835.442665                       # average overall miss latency
system.l2.overall_avg_miss_latency::total 114835.442665                       # average overall miss latency
system.l2.blocked_cycles::no_mshrs                  0                       # number of cycles access was blocked
system.l2.blocked_cycles::no_targets                0                       # number of cycles access was blocked
system.l2.blocked::no_mshrs                         0                       # number of cycles access was blocked
system.l2.blocked::no_targets                       0                       # number of cycles access was blocked
system.l2.avg_blocked_cycles::no_mshrs            nan                       # average number of cycles each access was blocked
system.l2.avg_blocked_cycles::no_targets          nan                       # average number of cycles each access was blocked
system.l2.writebacks::writebacks               677920                       # number of writebacks
system.l2.writebacks::total                    677920                       # number of writebacks
system.l2.HardPFReq_mshr_misses::l2.prefetcher       660932                       # number of HardPFReq MSHR misses
system.l2.HardPFReq_mshr_misses::total         660932                       # number of HardPFReq MSHR misses
system.l2.ReadExReq_mshr_misses::switch_cpus.data        16988                       # number of ReadExReq MSHR misses
system.l2.ReadExReq_mshr_misses::total          16988                       # number of ReadExReq MSHR misses
system.l2.demand_mshr_misses::switch_cpus.data        16988                       # number of demand (read+write) MSHR misses
system.l2.demand_mshr_misses::total             16988                       # number of demand (read+write) MSHR misses
system.l2.overall_mshr_misses::l2.prefetcher       660932                       # number of overall MSHR misses
system.l2.overall_mshr_misses::switch_cpus.data        16988                       # number of overall MSHR misses
system.l2.overall_mshr_misses::total           677920                       # number of overall MSHR misses
system.l2.HardPFReq_mshr_miss_latency::l2.prefetcher  56500906539                       # number of HardPFReq MSHR miss cycles
system.l2.HardPFReq_mshr_miss_latency::total  56500906539                       # number of HardPFReq MSHR miss cycles
system.l2.ReadExReq_mshr_miss_latency::switch_cpus.data   1780944500                       # number of ReadExReq MSHR miss cycles
system.l2.ReadExReq_mshr_miss_latency::total   1780944500                       # number of ReadExReq MSHR miss cycles
system.l2.demand_mshr_miss_latency::switch_cpus.data   1780944500                       # number of demand (read+write) MSHR miss cycles
system.l2.demand_mshr_miss_latency::total   1780944500                       # number of demand (read+write) MSHR miss cycles
system.l2.overall_mshr_miss_latency::l2.prefetcher  56500906539                       # number of overall MSHR miss cycles
system.l2.overall_mshr_miss_latency::switch_cpus.data   1780944500                       # number of overall MSHR miss cycles
system.l2.overall_mshr_miss_latency::total  58281851039                       # number of overall MSHR miss cycles
system.l2.HardPFReq_mshr_miss_rate::l2.prefetcher          inf                       # mshr miss rate for HardPFReq accesses
system.l2.HardPFReq_mshr_miss_rate::total          inf                       # mshr miss rate for HardPFReq accesses
system.l2.ReadExReq_mshr_miss_rate::switch_cpus.data     0.003708                       # mshr miss rate for ReadExReq accesses
system.l2.ReadExReq_mshr_miss_rate::total     0.003708                       # mshr miss rate for ReadExReq accesses
system.l2.demand_mshr_miss_rate::switch_cpus.data     0.003705                       # mshr miss rate for demand accesses
system.l2.demand_mshr_miss_rate::total       0.003705                       # mshr miss rate for demand accesses
system.l2.overall_mshr_miss_rate::l2.prefetcher          inf                       # mshr miss rate for overall accesses
system.l2.overall_mshr_miss_rate::switch_cpus.data     0.003705                       # mshr miss rate for overall accesses
system.l2.overall_mshr_miss_rate::total      0.147868                       # mshr miss rate for overall accesses
system.l2.HardPFReq_avg_mshr_miss_latency::l2.prefetcher 85486.716544                       # average HardPFReq mshr miss latency
system.l2.HardPFReq_avg_mshr_miss_latency::total 85486.716544                       # average HardPFReq mshr miss latency
system.l2.ReadExReq_avg_mshr_miss_latency::switch_cpus.data 104835.442665                       # average ReadExReq mshr miss latency
system.l2.ReadExReq_avg_mshr_miss_latency::total 104835.442665                       # average ReadExReq mshr miss latency
system.l2.demand_avg_mshr_miss_latency::switch_cpus.data 104835.442665                       # average overall mshr miss latency
system.l2.demand_avg_mshr_miss_latency::total 104835.442665                       # average overall mshr miss latency
system.l2.overall_avg_mshr_miss_latency::l2.prefetcher 85486.716544                       # average overall mshr miss latency
system.l2.overall_avg_mshr_miss_latency::switch_cpus.data 104835.442665                       # average overall mshr miss latency
system.l2.overall_avg_mshr_miss_latency::total 85971.576350                       # average overall mshr miss latency
system.membus.snoop_filter.tot_requests       1355840                       # Total number of requests made to the snoop filter.
system.membus.snoop_filter.hit_single_requests       677920                       # Number of requests hitting in the snoop filter with a single holder of the requested data.
system.membus.snoop_filter.hit_multi_requests            0                       # Number of requests hitting in the snoop filter with multiple (>1) holders of the requested data.
system.membus.snoop_filter.tot_snoops               0                       # Total number of snoops made to the snoop filter.
system.membus.snoop_filter.hit_single_snoops            0                       # Number of snoops hitting in the snoop filter with a single holder of the requested data.
system.membus.snoop_filter.hit_multi_snoops            0                       # Number of snoops hitting in the snoop filter with multiple (>1) holders of the requested data.
system.membus.pwrStateResidencyTicks::UNDEFINED  93876576500                       # Cumulative time (in ticks) in various power states
system.membus.trans_dist::ReadResp             660932                       # Transaction distribution
system.membus.trans_dist::WritebackDirty       677920                       # Transaction distribution
system.membus.trans_dist::ReadExReq             16988                       # Transaction distribution
system.membus.trans_dist::ReadExResp            16988                       # Transaction distribution
system.membus.trans_dist::ReadSharedReq        660932                       # Transaction distribution
system.membus.pkt_count_system.l2.mem_side::system.mem_ctrls.port      2033760                       # Packet count per connected master and slave (bytes)
system.membus.pkt_count_system.l2.mem_side::total      2033760                       # Packet count per connected master and slave (bytes)
system.membus.pkt_count::total                2033760                       # Packet count per connected master and slave (bytes)
system.membus.pkt_size_system.l2.mem_side::system.mem_ctrls.port     86773760                       # Cumulative packet size per connected master and slave (bytes)
system.membus.pkt_size_system.l2.mem_side::total     86773760                       # Cumulative packet size per connected master and slave (bytes)
system.membus.pkt_size::total                86773760                       # Cumulative packet size per connected master and slave (bytes)
system.membus.snoops                                0                       # Total snoops (count)
system.membus.snoopTraffic                          0                       # Total snoop traffic (bytes)
system.membus.snoop_fanout::samples            677920                       # Request fanout histogram
system.membus.snoop_fanout::mean                    0                       # Request fanout histogram
system.membus.snoop_fanout::stdev                   0                       # Request fanout histogram
system.membus.snoop_fanout::underflows              0      0.00%      0.00% # Request fanout histogram
system.membus.snoop_fanout::0                  677920    100.00%    100.00% # Request fanout histogram
system.membus.snoop_fanout::1                       0      0.00%    100.00% # Request fanout histogram
system.membus.snoop_fanout::overflows               0      0.00%    100.00% # Request fanout histogram
system.membus.snoop_fanout::min_value               0                       # Request fanout histogram
system.membus.snoop_fanout::max_value               0                       # Request fanout histogram
system.membus.snoop_fanout::total              677920                       # Request fanout histogram
system.membus.reqLayer2.occupancy          4601390072                       # Layer occupancy (ticks)
system.membus.reqLayer2.utilization               5.7                       # Layer utilization (%)
system.membus.respLayer1.occupancy         3635535927                       # Layer occupancy (ticks)
system.membus.respLayer1.utilization              4.5                       # Layer utilization (%)
system.switch_cpus.dtb.walker.pwrStateResidencyTicks::UNDEFINED  93876576500                       # Cumulative time (in ticks) in various power states
system.switch_cpus.itb.walker.pwrStateResidencyTicks::UNDEFINED  93876576500                       # Cumulative time (in ticks) in various power states
system.switch_cpus.pwrStateResidencyTicks::ON  93876576500                       # Cumulative time (in ticks) in various power states
system.switch_cpus.numCycles                160282630                       # number of cpu cycles simulated
system.switch_cpus.numWorkItemsStarted              0                       # number of work items this cpu started
system.switch_cpus.numWorkItemsCompleted            0                       # number of work items this cpu completed
system.switch_cpus.committedInsts            10000001                       # Number of instructions committed
system.switch_cpus.committedOps              20451923                       # Number of ops (including micro ops) committed
system.switch_cpus.num_int_alu_accesses      20400205                       # Number of integer alu accesses
system.switch_cpus.num_fp_alu_accesses         153960                       # Number of float alu accesses
system.switch_cpus.num_func_calls                   0                       # number of times a function call or return occured
system.switch_cpus.num_conditional_control_insts       790068                       # number of instructions that are conditional controls
system.switch_cpus.num_int_insts             20400205                       # number of integer instructions
system.switch_cpus.num_fp_insts                153960                       # number of float instructions
system.switch_cpus.num_int_register_reads     34286183                       # number of times the integer registers were read
system.switch_cpus.num_int_register_writes     13795977                       # number of times the integer registers were written
system.switch_cpus.num_fp_register_reads       231139                       # number of times the floating registers were read
system.switch_cpus.num_fp_register_writes        77577                       # number of times the floating registers were written
system.switch_cpus.num_cc_register_reads      4103892                       # number of times the CC registers were read
system.switch_cpus.num_cc_register_writes      6377838                       # number of times the CC registers were written
system.switch_cpus.num_mem_refs               6311046                       # number of memory refs
system.switch_cpus.num_load_insts              522745                       # Number of load instructions
system.switch_cpus.num_store_insts            5788301                       # Number of store instructions
system.switch_cpus.num_idle_cycles                  0                       # Number of idle cycles
system.switch_cpus.num_busy_cycles          160282630                       # Number of busy cycles
system.switch_cpus.not_idle_fraction                1                       # Percentage of non-idle cycles
system.switch_cpus.idle_fraction                    0                       # Percentage of idle cycles
system.switch_cpus.Branches                    790068                       # Number of branches fetched
system.switch_cpus.op_class::No_OpClass             0      0.00%      0.00% # Class of executed instruction
system.switch_cpus.op_class::IntAlu          14063698     68.76%     68.76% # Class of executed instruction
system.switch_cpus.op_class::IntMult                0      0.00%     68.76% # Class of executed instruction
system.switch_cpus.op_class::IntDiv                 0      0.00%     68.76% # Class of executed instruction
system.switch_cpus.op_class::FloatAdd           77179      0.38%     69.14% # Class of executed instruction
system.switch_cpus.op_class::FloatCmp               0      0.00%     69.14% # Class of executed instruction
system.switch_cpus.op_class::FloatCvt               0      0.00%     69.14% # Class of executed instruction
system.switch_cpus.op_class::FloatMult              0      0.00%     69.14% # Class of executed instruction
system.switch_cpus.op_class::FloatMultAcc            0      0.00%     69.14% # Class of executed instruction
system.switch_cpus.op_class::FloatDiv               0      0.00%     69.14% # Class of executed instruction
system.switch_cpus.op_class::FloatMisc              0      0.00%     69.14% # Class of executed instruction
system.switch_cpus.op_class::FloatSqrt              0      0.00%     69.14% # Class of executed instruction
system.switch_cpus.op_class::SimdAdd                0      0.00%     69.14% # Class of executed instruction
system.switch_cpus.op_class::SimdAddAcc             0      0.00%     69.14% # Class of executed instruction
system.switch_cpus.op_class::SimdAlu                0      0.00%     69.14% # Class of executed instruction
system.switch_cpus.op_class::SimdCmp                0      0.00%     69.14% # Class of executed instruction
system.switch_cpus.op_class::SimdCvt                0      0.00%     69.14% # Class of executed instruction
system.switch_cpus.op_class::SimdMisc               0      0.00%     69.14% # Class of executed instruction
system.switch_cpus.op_class::SimdMult               0      0.00%     69.14% # Class of executed instruction
system.switch_cpus.op_class::SimdMultAcc            0      0.00%     69.14% # Class of executed instruction
system.switch_cpus.op_class::SimdShift              0      0.00%     69.14% # Class of executed instruction
system.switch_cpus.op_class::SimdShiftAcc            0      0.00%     69.14% # Class of executed instruction
system.switch_cpus.op_class::SimdSqrt               0      0.00%     69.14% # Class of executed instruction
system.switch_cpus.op_class::SimdFloatAdd            0      0.00%     69.14% # Class of executed instruction
system.switch_cpus.op_class::SimdFloatAlu            0      0.00%     69.14% # Class of executed instruction
system.switch_cpus.op_class::SimdFloatCmp            0      0.00%     69.14% # Class of executed instruction
system.switch_cpus.op_class::SimdFloatCvt            0      0.00%     69.14% # Class of executed instruction
system.switch_cpus.op_class::SimdFloatDiv            0      0.00%     69.14% # Class of executed instruction
system.switch_cpus.op_class::SimdFloatMisc            0      0.00%     69.14% # Class of executed instruction
system.switch_cpus.op_class::SimdFloatMult            0      0.00%     69.14% # Class of executed instruction
system.switch_cpus.op_class::SimdFloatMultAcc            0      0.00%     69.14% # Class of executed instruction
system.switch_cpus.op_class::SimdFloatSqrt            0      0.00%     69.14% # Class of executed instruction
system.switch_cpus.op_class::MemRead           522347      2.55%     71.70% # Class of executed instruction
system.switch_cpus.op_class::MemWrite         5711918     27.93%     99.62% # Class of executed instruction
system.switch_cpus.op_class::FloatMemRead          398      0.00%     99.63% # Class of executed instruction
system.switch_cpus.op_class::FloatMemWrite        76383      0.37%    100.00% # Class of executed instruction
system.switch_cpus.op_class::IprAccess              0      0.00%    100.00% # Class of executed instruction
system.switch_cpus.op_class::InstPrefetch            0      0.00%    100.00% # Class of executed instruction
system.switch_cpus.op_class::total           20451923                       # Class of executed instruction
system.tol2bus.snoop_filter.tot_requests      9169252                       # Total number of requests made to the snoop filter.
system.tol2bus.snoop_filter.hit_single_requests      4584626                       # Number of requests hitting in the snoop filter with a single holder of the requested data.
system.tol2bus.snoop_filter.hit_multi_requests            0                       # Number of requests hitting in the snoop filter with multiple (>1) holders of the requested data.
system.tol2bus.snoop_filter.tot_snoops           1687                       # Total number of snoops made to the snoop filter.
system.tol2bus.snoop_filter.hit_single_snoops         1687                       # Number of snoops hitting in the snoop filter with a single holder of the requested data.
system.tol2bus.snoop_filter.hit_multi_snoops            0                       # Number of snoops hitting in the snoop filter with multiple (>1) holders of the requested data.
system.tol2bus.pwrStateResidencyTicks::UNDEFINED  93876576500                       # Cumulative time (in ticks) in various power states
system.tol2bus.trans_dist::ReadResp              3669                       # Transaction distribution
system.tol2bus.trans_dist::WritebackDirty      5262546                       # Transaction distribution
system.tol2bus.trans_dist::CleanEvict            1687                       # Transaction distribution
system.tol2bus.trans_dist::HardPFReq           784495                       # Transaction distribution
system.tol2bus.trans_dist::ReadExReq          4580957                       # Transaction distribution
system.tol2bus.trans_dist::ReadExResp         4580957                       # Transaction distribution
system.tol2bus.trans_dist::ReadSharedReq         3669                       # Transaction distribution
system.tol2bus.pkt_count_system.cpu.dcache.mem_side::system.l2.cpu_side     13753878                       # Packet count per connected master and slave (bytes)
system.tol2bus.pkt_count::total              13753878                       # Packet count per connected master and slave (bytes)
system.tol2bus.pkt_size_system.cpu.dcache.mem_side::system.l2.cpu_side    586832128                       # Cumulative packet size per connected master and slave (bytes)
system.tol2bus.pkt_size::total              586832128                       # Cumulative packet size per connected master and slave (bytes)
system.tol2bus.snoops                         1464102                       # Total snoops (count)
system.tol2bus.snoopTraffic                  43386880                       # Total snoop traffic (bytes)
system.tol2bus.snoop_fanout::samples          6048728                       # Request fanout histogram
system.tol2bus.snoop_fanout::mean            0.000279                       # Request fanout histogram
system.tol2bus.snoop_fanout::stdev           0.016698                       # Request fanout histogram
system.tol2bus.snoop_fanout::underflows             0      0.00%      0.00% # Request fanout histogram
system.tol2bus.snoop_fanout::0                6047041     99.97%     99.97% # Request fanout histogram
system.tol2bus.snoop_fanout::1                   1687      0.03%    100.00% # Request fanout histogram
system.tol2bus.snoop_fanout::2                      0      0.00%    100.00% # Request fanout histogram
system.tol2bus.snoop_fanout::3                      0      0.00%    100.00% # Request fanout histogram
system.tol2bus.snoop_fanout::4                      0      0.00%    100.00% # Request fanout histogram
system.tol2bus.snoop_fanout::overflows              0      0.00%    100.00% # Request fanout histogram
system.tol2bus.snoop_fanout::min_value              0                       # Request fanout histogram
system.tol2bus.snoop_fanout::max_value              1                       # Request fanout histogram
system.tol2bus.snoop_fanout::total            6048728                       # Request fanout histogram
system.tol2bus.reqLayer0.occupancy         9169252000                       # Layer occupancy (ticks)
system.tol2bus.reqLayer0.utilization             11.4                       # Layer utilization (%)
system.tol2bus.respLayer1.occupancy        6876939000                       # Layer occupancy (ticks)
system.tol2bus.respLayer1.utilization             8.6                       # Layer utilization (%)

---------- End Simulation Statistics   ----------
