
---------- Begin Simulation Statistics ----------
sim_seconds                                  0.021225                       # Number of seconds simulated
sim_ticks                                 21225090500                       # Number of ticks simulated
final_tick                                32741431500                       # Number of ticks from beginning of simulation (restored from checkpoints and never reset)
sim_freq                                 1000000000000                       # Frequency of simulated ticks
host_inst_rate                                 117449                       # Simulator instruction rate (inst/s)
host_op_rate                                   225843                       # Simulator op (including micro ops) rate (op/s)
host_tick_rate                              124642794                       # Simulator tick rate (ticks/s)
host_mem_usage                                2299256                       # Number of bytes of host memory used
host_seconds                                   170.29                       # Real time elapsed on the host
sim_insts                                    20000001                       # Number of instructions simulated
sim_ops                                      38458171                       # Number of ops (including micro ops) simulated
system.voltage_domain.voltage                       1                       # Voltage in Volts
system.clk_domain.clock                          1000                       # Clock period in ticks
system.mem_ctrls.pwrStateResidencyTicks::UNDEFINED  32741431500                       # Cumulative time (in ticks) in various power states
system.mem_ctrls.bytes_read::switch_cpus.data      2424448                       # Number of bytes read from this memory
system.mem_ctrls.bytes_read::total            2424448                       # Number of bytes read from this memory
system.mem_ctrls.bytes_written::writebacks      2354624                       # Number of bytes written to this memory
system.mem_ctrls.bytes_written::total         2354624                       # Number of bytes written to this memory
system.mem_ctrls.num_reads::switch_cpus.data        37882                       # Number of read requests responded to by this memory
system.mem_ctrls.num_reads::total               37882                       # Number of read requests responded to by this memory
system.mem_ctrls.num_writes::writebacks         36791                       # Number of write requests responded to by this memory
system.mem_ctrls.num_writes::total              36791                       # Number of write requests responded to by this memory
system.mem_ctrls.bw_read::switch_cpus.data    114225567                       # Total read bandwidth from this memory (bytes/s)
system.mem_ctrls.bw_read::total             114225567                       # Total read bandwidth from this memory (bytes/s)
system.mem_ctrls.bw_write::writebacks       110935876                       # Write bandwidth from this memory (bytes/s)
system.mem_ctrls.bw_write::total            110935876                       # Write bandwidth from this memory (bytes/s)
system.mem_ctrls.bw_total::writebacks       110935876                       # Total bandwidth to/from this memory (bytes/s)
system.mem_ctrls.bw_total::switch_cpus.data    114225567                       # Total bandwidth to/from this memory (bytes/s)
system.mem_ctrls.bw_total::total            225161443                       # Total bandwidth to/from this memory (bytes/s)
system.mem_ctrls.readReqs                       37882                       # Number of read requests accepted
system.mem_ctrls.writeReqs                      36791                       # Number of write requests accepted
system.mem_ctrls.readBursts                     37882                       # Number of DRAM read bursts, including those serviced by the write queue
system.mem_ctrls.writeBursts                    36791                       # Number of DRAM write bursts, including those merged in the write queue
system.mem_ctrls.bytesReadDRAM                2424448                       # Total number of bytes read from DRAM
system.mem_ctrls.bytesReadWrQ                       0                       # Total number of bytes read from write queue
system.mem_ctrls.bytesWritten                 2353024                       # Total number of bytes written to DRAM
system.mem_ctrls.bytesReadSys                 2424448                       # Total read bytes from the system interface side
system.mem_ctrls.bytesWrittenSys              2354624                       # Total written bytes from the system interface side
system.mem_ctrls.servicedByWrQ                      0                       # Number of DRAM read bursts serviced by the write queue
system.mem_ctrls.mergedWrBursts                     0                       # Number of DRAM write bursts merged with an existing one
system.mem_ctrls.neitherReadNorWriteReqs            0                       # Number of requests that are neither read nor write
system.mem_ctrls.perBankRdBursts::0              2279                       # Per bank write bursts
system.mem_ctrls.perBankRdBursts::1              2176                       # Per bank write bursts
system.mem_ctrls.perBankRdBursts::2              2176                       # Per bank write bursts
system.mem_ctrls.perBankRdBursts::3              2182                       # Per bank write bursts
system.mem_ctrls.perBankRdBursts::4              2176                       # Per bank write bursts
system.mem_ctrls.perBankRdBursts::5              2274                       # Per bank write bursts
system.mem_ctrls.perBankRdBursts::6              2369                       # Per bank write bursts
system.mem_ctrls.perBankRdBursts::7              2304                       # Per bank write bursts
system.mem_ctrls.perBankRdBursts::8              2304                       # Per bank write bursts
system.mem_ctrls.perBankRdBursts::9              2304                       # Per bank write bursts
system.mem_ctrls.perBankRdBursts::10             2841                       # Per bank write bursts
system.mem_ctrls.perBankRdBursts::11             2851                       # Per bank write bursts
system.mem_ctrls.perBankRdBursts::12             2360                       # Per bank write bursts
system.mem_ctrls.perBankRdBursts::13             2432                       # Per bank write bursts
system.mem_ctrls.perBankRdBursts::14             2432                       # Per bank write bursts
system.mem_ctrls.perBankRdBursts::15             2422                       # Per bank write bursts
system.mem_ctrls.perBankWrBursts::0              2428                       # Per bank write bursts
system.mem_ctrls.perBankWrBursts::1              2432                       # Per bank write bursts
system.mem_ctrls.perBankWrBursts::2              2432                       # Per bank write bursts
system.mem_ctrls.perBankWrBursts::3              2432                       # Per bank write bursts
system.mem_ctrls.perBankWrBursts::4              2432                       # Per bank write bursts
system.mem_ctrls.perBankWrBursts::5              2432                       # Per bank write bursts
system.mem_ctrls.perBankWrBursts::6              2420                       # Per bank write bursts
system.mem_ctrls.perBankWrBursts::7              2353                       # Per bank write bursts
system.mem_ctrls.perBankWrBursts::8              2152                       # Per bank write bursts
system.mem_ctrls.perBankWrBursts::9              2050                       # Per bank write bursts
system.mem_ctrls.perBankWrBursts::10             2063                       # Per bank write bursts
system.mem_ctrls.perBankWrBursts::11             2055                       # Per bank write bursts
system.mem_ctrls.perBankWrBursts::12             2081                       # Per bank write bursts
system.mem_ctrls.perBankWrBursts::13             2272                       # Per bank write bursts
system.mem_ctrls.perBankWrBursts::14             2349                       # Per bank write bursts
system.mem_ctrls.perBankWrBursts::15             2383                       # Per bank write bursts
system.mem_ctrls.numRdRetry                         0                       # Number of times read queue was full causing retry
system.mem_ctrls.numWrRetry                         0                       # Number of times write queue was full causing retry
system.mem_ctrls.totGap                   21223462000                       # Total gap between requests
system.mem_ctrls.readPktSize::0                     0                       # Read request sizes (log2)
system.mem_ctrls.readPktSize::1                     0                       # Read request sizes (log2)
system.mem_ctrls.readPktSize::2                     0                       # Read request sizes (log2)
system.mem_ctrls.readPktSize::3                     0                       # Read request sizes (log2)
system.mem_ctrls.readPktSize::4                     0                       # Read request sizes (log2)
system.mem_ctrls.readPktSize::5                     0                       # Read request sizes (log2)
system.mem_ctrls.readPktSize::6                 37882                       # Read request sizes (log2)
system.mem_ctrls.writePktSize::0                    0                       # Write request sizes (log2)
system.mem_ctrls.writePktSize::1                    0                       # Write request sizes (log2)
system.mem_ctrls.writePktSize::2                    0                       # Write request sizes (log2)
system.mem_ctrls.writePktSize::3                    0                       # Write request sizes (log2)
system.mem_ctrls.writePktSize::4                    0                       # Write request sizes (log2)
system.mem_ctrls.writePktSize::5                    0                       # Write request sizes (log2)
system.mem_ctrls.writePktSize::6                36791                       # Write request sizes (log2)
system.mem_ctrls.rdQLenPdf::0                   37882                       # What read queue length does an incoming req see
system.mem_ctrls.rdQLenPdf::1                       0                       # What read queue length does an incoming req see
system.mem_ctrls.rdQLenPdf::2                       0                       # What read queue length does an incoming req see
system.mem_ctrls.rdQLenPdf::3                       0                       # What read queue length does an incoming req see
system.mem_ctrls.rdQLenPdf::4                       0                       # What read queue length does an incoming req see
system.mem_ctrls.rdQLenPdf::5                       0                       # What read queue length does an incoming req see
system.mem_ctrls.rdQLenPdf::6                       0                       # What read queue length does an incoming req see
system.mem_ctrls.rdQLenPdf::7                       0                       # What read queue length does an incoming req see
system.mem_ctrls.rdQLenPdf::8                       0                       # What read queue length does an incoming req see
system.mem_ctrls.rdQLenPdf::9                       0                       # What read queue length does an incoming req see
system.mem_ctrls.rdQLenPdf::10                      0                       # What read queue length does an incoming req see
system.mem_ctrls.rdQLenPdf::11                      0                       # What read queue length does an incoming req see
system.mem_ctrls.rdQLenPdf::12                      0                       # What read queue length does an incoming req see
system.mem_ctrls.rdQLenPdf::13                      0                       # What read queue length does an incoming req see
system.mem_ctrls.rdQLenPdf::14                      0                       # What read queue length does an incoming req see
system.mem_ctrls.rdQLenPdf::15                      0                       # What read queue length does an incoming req see
system.mem_ctrls.rdQLenPdf::16                      0                       # What read queue length does an incoming req see
system.mem_ctrls.rdQLenPdf::17                      0                       # What read queue length does an incoming req see
system.mem_ctrls.rdQLenPdf::18                      0                       # What read queue length does an incoming req see
system.mem_ctrls.rdQLenPdf::19                      0                       # What read queue length does an incoming req see
system.mem_ctrls.rdQLenPdf::20                      0                       # What read queue length does an incoming req see
system.mem_ctrls.rdQLenPdf::21                      0                       # What read queue length does an incoming req see
system.mem_ctrls.rdQLenPdf::22                      0                       # What read queue length does an incoming req see
system.mem_ctrls.rdQLenPdf::23                      0                       # What read queue length does an incoming req see
system.mem_ctrls.rdQLenPdf::24                      0                       # What read queue length does an incoming req see
system.mem_ctrls.rdQLenPdf::25                      0                       # What read queue length does an incoming req see
system.mem_ctrls.rdQLenPdf::26                      0                       # What read queue length does an incoming req see
system.mem_ctrls.rdQLenPdf::27                      0                       # What read queue length does an incoming req see
system.mem_ctrls.rdQLenPdf::28                      0                       # What read queue length does an incoming req see
system.mem_ctrls.rdQLenPdf::29                      0                       # What read queue length does an incoming req see
system.mem_ctrls.rdQLenPdf::30                      0                       # What read queue length does an incoming req see
system.mem_ctrls.rdQLenPdf::31                      0                       # What read queue length does an incoming req see
system.mem_ctrls.wrQLenPdf::0                       1                       # What write queue length does an incoming req see
system.mem_ctrls.wrQLenPdf::1                       1                       # What write queue length does an incoming req see
system.mem_ctrls.wrQLenPdf::2                       1                       # What write queue length does an incoming req see
system.mem_ctrls.wrQLenPdf::3                       1                       # What write queue length does an incoming req see
system.mem_ctrls.wrQLenPdf::4                       1                       # What write queue length does an incoming req see
system.mem_ctrls.wrQLenPdf::5                       1                       # What write queue length does an incoming req see
system.mem_ctrls.wrQLenPdf::6                       1                       # What write queue length does an incoming req see
system.mem_ctrls.wrQLenPdf::7                       1                       # What write queue length does an incoming req see
system.mem_ctrls.wrQLenPdf::8                       1                       # What write queue length does an incoming req see
system.mem_ctrls.wrQLenPdf::9                       1                       # What write queue length does an incoming req see
system.mem_ctrls.wrQLenPdf::10                      1                       # What write queue length does an incoming req see
system.mem_ctrls.wrQLenPdf::11                      1                       # What write queue length does an incoming req see
system.mem_ctrls.wrQLenPdf::12                      1                       # What write queue length does an incoming req see
system.mem_ctrls.wrQLenPdf::13                      1                       # What write queue length does an incoming req see
system.mem_ctrls.wrQLenPdf::14                      1                       # What write queue length does an incoming req see
system.mem_ctrls.wrQLenPdf::15                    366                       # What write queue length does an incoming req see
system.mem_ctrls.wrQLenPdf::16                    368                       # What write queue length does an incoming req see
system.mem_ctrls.wrQLenPdf::17                   2252                       # What write queue length does an incoming req see
system.mem_ctrls.wrQLenPdf::18                   2254                       # What write queue length does an incoming req see
system.mem_ctrls.wrQLenPdf::19                   2253                       # What write queue length does an incoming req see
system.mem_ctrls.wrQLenPdf::20                   2253                       # What write queue length does an incoming req see
system.mem_ctrls.wrQLenPdf::21                   2253                       # What write queue length does an incoming req see
system.mem_ctrls.wrQLenPdf::22                   2253                       # What write queue length does an incoming req see
system.mem_ctrls.wrQLenPdf::23                   2253                       # What write queue length does an incoming req see
system.mem_ctrls.wrQLenPdf::24                   2253                       # What write queue length does an incoming req see
system.mem_ctrls.wrQLenPdf::25                   2252                       # What write queue length does an incoming req see
system.mem_ctrls.wrQLenPdf::26                   2252                       # What write queue length does an incoming req see
system.mem_ctrls.wrQLenPdf::27                   2252                       # What write queue length does an incoming req see
system.mem_ctrls.wrQLenPdf::28                   2252                       # What write queue length does an incoming req see
system.mem_ctrls.wrQLenPdf::29                   2254                       # What write queue length does an incoming req see
system.mem_ctrls.wrQLenPdf::30                   2252                       # What write queue length does an incoming req see
system.mem_ctrls.wrQLenPdf::31                   2252                       # What write queue length does an incoming req see
system.mem_ctrls.wrQLenPdf::32                   2252                       # What write queue length does an incoming req see
system.mem_ctrls.wrQLenPdf::33                      0                       # What write queue length does an incoming req see
system.mem_ctrls.wrQLenPdf::34                      0                       # What write queue length does an incoming req see
system.mem_ctrls.wrQLenPdf::35                      0                       # What write queue length does an incoming req see
system.mem_ctrls.wrQLenPdf::36                      0                       # What write queue length does an incoming req see
system.mem_ctrls.wrQLenPdf::37                      0                       # What write queue length does an incoming req see
system.mem_ctrls.wrQLenPdf::38                      0                       # What write queue length does an incoming req see
system.mem_ctrls.wrQLenPdf::39                      0                       # What write queue length does an incoming req see
system.mem_ctrls.wrQLenPdf::40                      0                       # What write queue length does an incoming req see
system.mem_ctrls.wrQLenPdf::41                      0                       # What write queue length does an incoming req see
system.mem_ctrls.wrQLenPdf::42                      0                       # What write queue length does an incoming req see
system.mem_ctrls.wrQLenPdf::43                      0                       # What write queue length does an incoming req see
system.mem_ctrls.wrQLenPdf::44                      0                       # What write queue length does an incoming req see
system.mem_ctrls.wrQLenPdf::45                      0                       # What write queue length does an incoming req see
system.mem_ctrls.wrQLenPdf::46                      0                       # What write queue length does an incoming req see
system.mem_ctrls.wrQLenPdf::47                      0                       # What write queue length does an incoming req see
system.mem_ctrls.wrQLenPdf::48                      0                       # What write queue length does an incoming req see
system.mem_ctrls.wrQLenPdf::49                      0                       # What write queue length does an incoming req see
system.mem_ctrls.wrQLenPdf::50                      0                       # What write queue length does an incoming req see
system.mem_ctrls.wrQLenPdf::51                      0                       # What write queue length does an incoming req see
system.mem_ctrls.wrQLenPdf::52                      0                       # What write queue length does an incoming req see
system.mem_ctrls.wrQLenPdf::53                      0                       # What write queue length does an incoming req see
system.mem_ctrls.wrQLenPdf::54                      0                       # What write queue length does an incoming req see
system.mem_ctrls.wrQLenPdf::55                      0                       # What write queue length does an incoming req see
system.mem_ctrls.wrQLenPdf::56                      0                       # What write queue length does an incoming req see
system.mem_ctrls.wrQLenPdf::57                      0                       # What write queue length does an incoming req see
system.mem_ctrls.wrQLenPdf::58                      0                       # What write queue length does an incoming req see
system.mem_ctrls.wrQLenPdf::59                      0                       # What write queue length does an incoming req see
system.mem_ctrls.wrQLenPdf::60                      0                       # What write queue length does an incoming req see
system.mem_ctrls.wrQLenPdf::61                      0                       # What write queue length does an incoming req see
system.mem_ctrls.wrQLenPdf::62                      0                       # What write queue length does an incoming req see
system.mem_ctrls.wrQLenPdf::63                      0                       # What write queue length does an incoming req see
system.mem_ctrls.bytesPerActivate::samples        18328                       # Bytes accessed per row activation
system.mem_ctrls.bytesPerActivate::mean    260.626801                       # Bytes accessed per row activation
system.mem_ctrls.bytesPerActivate::gmean   190.723254                       # Bytes accessed per row activation
system.mem_ctrls.bytesPerActivate::stdev   220.197975                       # Bytes accessed per row activation
system.mem_ctrls.bytesPerActivate::0-127         4537     24.75%     24.75% # Bytes accessed per row activation
system.mem_ctrls.bytesPerActivate::128-255         6281     34.27%     59.02% # Bytes accessed per row activation
system.mem_ctrls.bytesPerActivate::256-383         3140     17.13%     76.16% # Bytes accessed per row activation
system.mem_ctrls.bytesPerActivate::384-511         1929     10.52%     86.68% # Bytes accessed per row activation
system.mem_ctrls.bytesPerActivate::512-639          901      4.92%     91.60% # Bytes accessed per row activation
system.mem_ctrls.bytesPerActivate::640-767          470      2.56%     94.16% # Bytes accessed per row activation
system.mem_ctrls.bytesPerActivate::768-895          428      2.34%     96.50% # Bytes accessed per row activation
system.mem_ctrls.bytesPerActivate::896-1023          244      1.33%     97.83% # Bytes accessed per row activation
system.mem_ctrls.bytesPerActivate::1024-1151          398      2.17%    100.00% # Bytes accessed per row activation
system.mem_ctrls.bytesPerActivate::total        18328                       # Bytes accessed per row activation
system.mem_ctrls.rdPerTurnAround::samples         2252                       # Reads before turning the bus around for writes
system.mem_ctrls.rdPerTurnAround::mean      16.817940                       # Reads before turning the bus around for writes
system.mem_ctrls.rdPerTurnAround::gmean     16.713696                       # Reads before turning the bus around for writes
system.mem_ctrls.rdPerTurnAround::stdev      2.138409                       # Reads before turning the bus around for writes
system.mem_ctrls.rdPerTurnAround::12-13             1      0.04%      0.04% # Reads before turning the bus around for writes
system.mem_ctrls.rdPerTurnAround::14-15            21      0.93%      0.98% # Reads before turning the bus around for writes
system.mem_ctrls.rdPerTurnAround::16-17          1728     76.73%     77.71% # Reads before turning the bus around for writes
system.mem_ctrls.rdPerTurnAround::18-19           367     16.30%     94.01% # Reads before turning the bus around for writes
system.mem_ctrls.rdPerTurnAround::20-21            52      2.31%     96.31% # Reads before turning the bus around for writes
system.mem_ctrls.rdPerTurnAround::22-23            28      1.24%     97.56% # Reads before turning the bus around for writes
system.mem_ctrls.rdPerTurnAround::24-25            14      0.62%     98.18% # Reads before turning the bus around for writes
system.mem_ctrls.rdPerTurnAround::26-27            10      0.44%     98.62% # Reads before turning the bus around for writes
system.mem_ctrls.rdPerTurnAround::28-29            17      0.75%     99.38% # Reads before turning the bus around for writes
system.mem_ctrls.rdPerTurnAround::30-31            11      0.49%     99.87% # Reads before turning the bus around for writes
system.mem_ctrls.rdPerTurnAround::32-33             3      0.13%    100.00% # Reads before turning the bus around for writes
system.mem_ctrls.rdPerTurnAround::total          2252                       # Reads before turning the bus around for writes
system.mem_ctrls.wrPerTurnAround::samples         2252                       # Writes before turning the bus around for reads
system.mem_ctrls.wrPerTurnAround::mean      16.325933                       # Writes before turning the bus around for reads
system.mem_ctrls.wrPerTurnAround::gmean     16.310036                       # Writes before turning the bus around for reads
system.mem_ctrls.wrPerTurnAround::stdev      0.740035                       # Writes before turning the bus around for reads
system.mem_ctrls.wrPerTurnAround::16             1885     83.70%     83.70% # Writes before turning the bus around for reads
system.mem_ctrls.wrPerTurnAround::17                2      0.09%     83.79% # Writes before turning the bus around for reads
system.mem_ctrls.wrPerTurnAround::18              363     16.12%     99.91% # Writes before turning the bus around for reads
system.mem_ctrls.wrPerTurnAround::19                2      0.09%    100.00% # Writes before turning the bus around for reads
system.mem_ctrls.wrPerTurnAround::total          2252                       # Writes before turning the bus around for reads
system.mem_ctrls.totQLat                    864505750                       # Total ticks spent queuing
system.mem_ctrls.totMemAccLat              1574793250                       # Total ticks spent from burst creation until serviced by the DRAM
system.mem_ctrls.totBusLat                  189410000                       # Total ticks spent in databus transfers
system.mem_ctrls.avgQLat                     22821.02                       # Average queueing delay per DRAM burst
system.mem_ctrls.avgBusLat                    5000.00                       # Average bus latency per DRAM burst
system.mem_ctrls.avgMemAccLat                41571.02                       # Average memory access latency per DRAM burst
system.mem_ctrls.avgRdBW                       114.23                       # Average DRAM read bandwidth in MiByte/s
system.mem_ctrls.avgWrBW                       110.86                       # Average achieved write bandwidth in MiByte/s
system.mem_ctrls.avgRdBWSys                    114.23                       # Average system read bandwidth in MiByte/s
system.mem_ctrls.avgWrBWSys                    110.94                       # Average system write bandwidth in MiByte/s
system.mem_ctrls.peakBW                      12800.00                       # Theoretical peak bandwidth in MiByte/s
system.mem_ctrls.busUtil                         1.76                       # Data bus utilization in percentage
system.mem_ctrls.busUtilRead                     0.89                       # Data bus utilization in percentage for reads
system.mem_ctrls.busUtilWrite                    0.87                       # Data bus utilization in percentage for writes
system.mem_ctrls.avgRdQLen                       1.00                       # Average read queue length when enqueuing
system.mem_ctrls.avgWrQLen                      25.43                       # Average write queue length when enqueuing
system.mem_ctrls.readRowHits                    25070                       # Number of row buffer hits during reads
system.mem_ctrls.writeRowHits                   31246                       # Number of row buffer hits during writes
system.mem_ctrls.readRowHitRate                 66.18                       # Row buffer hit rate for reads
system.mem_ctrls.writeRowHitRate                84.93                       # Row buffer hit rate for writes
system.mem_ctrls.avgGap                     284218.69                       # Average gap between requests
system.mem_ctrls.pageHitRate                    75.42                       # Row buffer hit rate, read and write combined
system.mem_ctrls_0.actEnergy                 62524980                       # Energy for activate commands per rank (pJ)
system.mem_ctrls_0.preEnergy                 33221430                       # Energy for precharge commands per rank (pJ)
system.mem_ctrls_0.readEnergy               128063040                       # Energy for read commands per rank (pJ)
system.mem_ctrls_0.writeEnergy              101064420                       # Energy for write commands per rank (pJ)
system.mem_ctrls_0.refreshEnergy         1735128720.000000                       # Energy for refresh commands per rank (pJ)
system.mem_ctrls_0.actBackEnergy           1648721580                       # Energy for active background per rank (pJ)
system.mem_ctrls_0.preBackEnergy             59485920                       # Energy for precharge background per rank (pJ)
system.mem_ctrls_0.actPowerDownEnergy      5464305000                       # Energy for active power-down per rank (pJ)
system.mem_ctrls_0.prePowerDownEnergy      1814105280                       # Energy for precharge power-down per rank (pJ)
system.mem_ctrls_0.selfRefreshEnergy        294312540                       # Energy for self refresh per rank (pJ)
system.mem_ctrls_0.totalEnergy            11341342770                       # Total energy per rank (pJ)
system.mem_ctrls_0.averagePower            534.336522                       # Core power per rank (mW)
system.mem_ctrls_0.totalIdleTime          17453515000                       # Total Idle time Per DRAM Rank
system.mem_ctrls_0.memoryStateTime::IDLE     72574500                       # Time in different power states
system.mem_ctrls_0.memoryStateTime::REF     735240000                       # Time in different power states
system.mem_ctrls_0.memoryStateTime::SREF    746308750                       # Time in different power states
system.mem_ctrls_0.memoryStateTime::PRE_PDN   4724064750                       # Time in different power states
system.mem_ctrls_0.memoryStateTime::ACT    2963706250                       # Time in different power states
system.mem_ctrls_0.memoryStateTime::ACT_PDN  11983196250                       # Time in different power states
system.mem_ctrls_1.actEnergy                 68365500                       # Energy for activate commands per rank (pJ)
system.mem_ctrls_1.preEnergy                 36333330                       # Energy for precharge commands per rank (pJ)
system.mem_ctrls_1.readEnergy               142414440                       # Energy for read commands per rank (pJ)
system.mem_ctrls_1.writeEnergy               90854100                       # Energy for write commands per rank (pJ)
system.mem_ctrls_1.refreshEnergy         1723450560.000000                       # Energy for refresh commands per rank (pJ)
system.mem_ctrls_1.actBackEnergy           1400187900                       # Energy for active background per rank (pJ)
system.mem_ctrls_1.preBackEnergy             54766560                       # Energy for precharge background per rank (pJ)
system.mem_ctrls_1.actPowerDownEnergy      6038377650                       # Energy for active power-down per rank (pJ)
system.mem_ctrls_1.prePowerDownEnergy      1694618880                       # Energy for precharge power-down per rank (pJ)
system.mem_ctrls_1.selfRefreshEnergy        159244650                       # Energy for self refresh per rank (pJ)
system.mem_ctrls_1.totalEnergy            11409006060                       # Total energy per rank (pJ)
system.mem_ctrls_1.averagePower            537.524476                       # Core power per rank (mW)
system.mem_ctrls_1.totalIdleTime          18011246750                       # Total Idle time Per DRAM Rank
system.mem_ctrls_1.memoryStateTime::IDLE     60226500                       # Time in different power states
system.mem_ctrls_1.memoryStateTime::REF     729862000                       # Time in different power states
system.mem_ctrls_1.memoryStateTime::SREF    355891000                       # Time in different power states
system.mem_ctrls_1.memoryStateTime::PRE_PDN   4413055750                       # Time in different power states
system.mem_ctrls_1.memoryStateTime::ACT    2423470250                       # Time in different power states
system.mem_ctrls_1.memoryStateTime::ACT_PDN  13242585000                       # Time in different power states
system.pwrStateResidencyTicks::UNDEFINED  32741431500                       # Cumulative time (in ticks) in various power states
system.cpu_voltage_domain.voltage                   1                       # Voltage in Volts
system.cpu_clk_domain.clock                       500                       # Clock period in ticks
system.cpu.dtb.walker.pwrStateResidencyTicks::UNDEFINED  32741431500                       # Cumulative time (in ticks) in various power states
system.cpu.apic_clk_domain.clock                 8000                       # Clock period in ticks
system.cpu.interrupts.pwrStateResidencyTicks::UNDEFINED  32741431500                       # Cumulative time (in ticks) in various power states
system.cpu.itb.walker.pwrStateResidencyTicks::UNDEFINED  32741431500                       # Cumulative time (in ticks) in various power states
system.cpu.workload.numSyscalls                     9                       # Number of system calls
system.cpu.pwrStateResidencyTicks::ON     32741431500                       # Cumulative time (in ticks) in various power states
system.cpu.numCycles                                0                       # number of cpu cycles simulated
system.cpu.numWorkItemsStarted                      0                       # number of work items this cpu started
system.cpu.numWorkItemsCompleted                    0                       # number of work items this cpu completed
system.cpu.committedInsts                           0                       # Number of instructions committed
system.cpu.committedOps                             0                       # Number of ops (including micro ops) committed
system.cpu.num_int_alu_accesses                     0                       # Number of integer alu accesses
system.cpu.num_fp_alu_accesses                      0                       # Number of float alu accesses
system.cpu.num_func_calls                           0                       # number of times a function call or return occured
system.cpu.num_conditional_control_insts            0                       # number of instructions that are conditional controls
system.cpu.num_int_insts                            0                       # number of integer instructions
system.cpu.num_fp_insts                             0                       # number of float instructions
system.cpu.num_int_register_reads                   0                       # number of times the integer registers were read
system.cpu.num_int_register_writes                  0                       # number of times the integer registers were written
system.cpu.num_fp_register_reads                    0                       # number of times the floating registers were read
system.cpu.num_fp_register_writes                   0                       # number of times the floating registers were written
system.cpu.num_mem_refs                             0                       # number of memory refs
system.cpu.num_load_insts                           0                       # Number of load instructions
system.cpu.num_store_insts                          0                       # Number of store instructions
system.cpu.num_idle_cycles                          0                       # Number of idle cycles
system.cpu.num_busy_cycles                          0                       # Number of busy cycles
system.cpu.not_idle_fraction                        1                       # Percentage of non-idle cycles
system.cpu.idle_fraction                            0                       # Percentage of idle cycles
system.cpu.op_class::No_OpClass                     0                       # Class of executed instruction
system.cpu.op_class::IntAlu                         0                       # Class of executed instruction
system.cpu.op_class::IntMult                        0                       # Class of executed instruction
system.cpu.op_class::IntDiv                         0                       # Class of executed instruction
system.cpu.op_class::FloatAdd                       0                       # Class of executed instruction
system.cpu.op_class::FloatCmp                       0                       # Class of executed instruction
system.cpu.op_class::FloatCvt                       0                       # Class of executed instruction
system.cpu.op_class::FloatMult                      0                       # Class of executed instruction
system.cpu.op_class::FloatMultAcc                   0                       # Class of executed instruction
system.cpu.op_class::FloatDiv                       0                       # Class of executed instruction
system.cpu.op_class::FloatMisc                      0                       # Class of executed instruction
system.cpu.op_class::FloatSqrt                      0                       # Class of executed instruction
system.cpu.op_class::SimdAdd                        0                       # Class of executed instruction
system.cpu.op_class::SimdAddAcc                     0                       # Class of executed instruction
system.cpu.op_class::SimdAlu                        0                       # Class of executed instruction
system.cpu.op_class::SimdCmp                        0                       # Class of executed instruction
system.cpu.op_class::SimdCvt                        0                       # Class of executed instruction
system.cpu.op_class::SimdMisc                       0                       # Class of executed instruction
system.cpu.op_class::SimdMult                       0                       # Class of executed instruction
system.cpu.op_class::SimdMultAcc                    0                       # Class of executed instruction
system.cpu.op_class::SimdShift                      0                       # Class of executed instruction
system.cpu.op_class::SimdShiftAcc                   0                       # Class of executed instruction
system.cpu.op_class::SimdSqrt                       0                       # Class of executed instruction
system.cpu.op_class::SimdFloatAdd                   0                       # Class of executed instruction
system.cpu.op_class::SimdFloatAlu                   0                       # Class of executed instruction
system.cpu.op_class::SimdFloatCmp                   0                       # Class of executed instruction
system.cpu.op_class::SimdFloatCvt                   0                       # Class of executed instruction
system.cpu.op_class::SimdFloatDiv                   0                       # Class of executed instruction
system.cpu.op_class::SimdFloatMisc                  0                       # Class of executed instruction
system.cpu.op_class::SimdFloatMult                  0                       # Class of executed instruction
system.cpu.op_class::SimdFloatMultAcc               0                       # Class of executed instruction
system.cpu.op_class::SimdFloatSqrt                  0                       # Class of executed instruction
system.cpu.op_class::MemRead                        0                       # Class of executed instruction
system.cpu.op_class::MemWrite                       0                       # Class of executed instruction
system.cpu.op_class::FloatMemRead                   0                       # Class of executed instruction
system.cpu.op_class::FloatMemWrite                  0                       # Class of executed instruction
system.cpu.op_class::IprAccess                      0                       # Class of executed instruction
system.cpu.op_class::InstPrefetch                   0                       # Class of executed instruction
system.cpu.op_class::total                          0                       # Class of executed instruction
system.cpu.dcache.tags.pwrStateResidencyTicks::UNDEFINED  32741431500                       # Cumulative time (in ticks) in various power states
system.cpu.dcache.tags.replacements             39395                       # number of replacements
system.cpu.dcache.tags.tagsinuse                  512                       # Cycle average of tags in use
system.cpu.dcache.tags.total_refs             4582869                       # Total number of references to valid blocks.
system.cpu.dcache.tags.sampled_refs             39907                       # Sample count of references to valid blocks.
system.cpu.dcache.tags.avg_refs            114.838725                       # Average number of references to valid blocks.
system.cpu.dcache.tags.warmup_cycle                 0                       # Cycle when the warmup percentage was hit.
system.cpu.dcache.tags.occ_blocks::cpu.data    23.900983                       # Average occupied blocks per requestor
system.cpu.dcache.tags.occ_blocks::switch_cpus.data   488.099017                       # Average occupied blocks per requestor
system.cpu.dcache.tags.occ_percent::cpu.data     0.046682                       # Average percentage of cache occupancy
system.cpu.dcache.tags.occ_percent::switch_cpus.data     0.953318                       # Average percentage of cache occupancy
system.cpu.dcache.tags.occ_percent::total            1                       # Average percentage of cache occupancy
system.cpu.dcache.tags.occ_task_id_blocks::1024          512                       # Occupied blocks per task id
system.cpu.dcache.tags.age_task_id_blocks_1024::0           19                       # Occupied blocks per task id
system.cpu.dcache.tags.age_task_id_blocks_1024::1          161                       # Occupied blocks per task id
system.cpu.dcache.tags.age_task_id_blocks_1024::2          295                       # Occupied blocks per task id
system.cpu.dcache.tags.age_task_id_blocks_1024::3           19                       # Occupied blocks per task id
system.cpu.dcache.tags.age_task_id_blocks_1024::4           18                       # Occupied blocks per task id
system.cpu.dcache.tags.occ_task_id_percent::1024            1                       # Percentage of cache occupancy per task id
system.cpu.dcache.tags.tag_accesses           6882805                       # Number of tag accesses
system.cpu.dcache.tags.data_accesses          6882805                       # Number of data accesses
system.cpu.dcache.pwrStateResidencyTicks::UNDEFINED  32741431500                       # Cumulative time (in ticks) in various power states
system.cpu.dcache.ReadReq_hits::switch_cpus.data      1920889                       # number of ReadReq hits
system.cpu.dcache.ReadReq_hits::total         1920889                       # number of ReadReq hits
system.cpu.dcache.WriteReq_hits::switch_cpus.data      1461421                       # number of WriteReq hits
system.cpu.dcache.WriteReq_hits::total        1461421                       # number of WriteReq hits
system.cpu.dcache.demand_hits::switch_cpus.data      3382310                       # number of demand (read+write) hits
system.cpu.dcache.demand_hits::total          3382310                       # number of demand (read+write) hits
system.cpu.dcache.overall_hits::switch_cpus.data      3382310                       # number of overall hits
system.cpu.dcache.overall_hits::total         3382310                       # number of overall hits
system.cpu.dcache.ReadReq_misses::switch_cpus.data         6449                       # number of ReadReq misses
system.cpu.dcache.ReadReq_misses::total          6449                       # number of ReadReq misses
system.cpu.dcache.WriteReq_misses::switch_cpus.data        32946                       # number of WriteReq misses
system.cpu.dcache.WriteReq_misses::total        32946                       # number of WriteReq misses
system.cpu.dcache.demand_misses::switch_cpus.data        39395                       # number of demand (read+write) misses
system.cpu.dcache.demand_misses::total          39395                       # number of demand (read+write) misses
system.cpu.dcache.overall_misses::switch_cpus.data        39395                       # number of overall misses
system.cpu.dcache.overall_misses::total         39395                       # number of overall misses
system.cpu.dcache.ReadReq_miss_latency::switch_cpus.data    540762000                       # number of ReadReq miss cycles
system.cpu.dcache.ReadReq_miss_latency::total    540762000                       # number of ReadReq miss cycles
system.cpu.dcache.WriteReq_miss_latency::switch_cpus.data   3075217000                       # number of WriteReq miss cycles
system.cpu.dcache.WriteReq_miss_latency::total   3075217000                       # number of WriteReq miss cycles
system.cpu.dcache.demand_miss_latency::switch_cpus.data   3615979000                       # number of demand (read+write) miss cycles
system.cpu.dcache.demand_miss_latency::total   3615979000                       # number of demand (read+write) miss cycles
system.cpu.dcache.overall_miss_latency::switch_cpus.data   3615979000                       # number of overall miss cycles
system.cpu.dcache.overall_miss_latency::total   3615979000                       # number of overall miss cycles
system.cpu.dcache.ReadReq_accesses::switch_cpus.data      1927338                       # number of ReadReq accesses(hits+misses)
system.cpu.dcache.ReadReq_accesses::total      1927338                       # number of ReadReq accesses(hits+misses)
system.cpu.dcache.WriteReq_accesses::switch_cpus.data      1494367                       # number of WriteReq accesses(hits+misses)
system.cpu.dcache.WriteReq_accesses::total      1494367                       # number of WriteReq accesses(hits+misses)
system.cpu.dcache.demand_accesses::switch_cpus.data      3421705                       # number of demand (read+write) accesses
system.cpu.dcache.demand_accesses::total      3421705                       # number of demand (read+write) accesses
system.cpu.dcache.overall_accesses::switch_cpus.data      3421705                       # number of overall (read+write) accesses
system.cpu.dcache.overall_accesses::total      3421705                       # number of overall (read+write) accesses
system.cpu.dcache.ReadReq_miss_rate::switch_cpus.data     0.003346                       # miss rate for ReadReq accesses
system.cpu.dcache.ReadReq_miss_rate::total     0.003346                       # miss rate for ReadReq accesses
system.cpu.dcache.WriteReq_miss_rate::switch_cpus.data     0.022047                       # miss rate for WriteReq accesses
system.cpu.dcache.WriteReq_miss_rate::total     0.022047                       # miss rate for WriteReq accesses
system.cpu.dcache.demand_miss_rate::switch_cpus.data     0.011513                       # miss rate for demand accesses
system.cpu.dcache.demand_miss_rate::total     0.011513                       # miss rate for demand accesses
system.cpu.dcache.overall_miss_rate::switch_cpus.data     0.011513                       # miss rate for overall accesses
system.cpu.dcache.overall_miss_rate::total     0.011513                       # miss rate for overall accesses
system.cpu.dcache.ReadReq_avg_miss_latency::switch_cpus.data 83852.070088                       # average ReadReq miss latency
system.cpu.dcache.ReadReq_avg_miss_latency::total 83852.070088                       # average ReadReq miss latency
system.cpu.dcache.WriteReq_avg_miss_latency::switch_cpus.data 93341.133977                       # average WriteReq miss latency
system.cpu.dcache.WriteReq_avg_miss_latency::total 93341.133977                       # average WriteReq miss latency
system.cpu.dcache.demand_avg_miss_latency::switch_cpus.data 91787.764945                       # average overall miss latency
system.cpu.dcache.demand_avg_miss_latency::total 91787.764945                       # average overall miss latency
system.cpu.dcache.overall_avg_miss_latency::switch_cpus.data 91787.764945                       # average overall miss latency
system.cpu.dcache.overall_avg_miss_latency::total 91787.764945                       # average overall miss latency
system.cpu.dcache.blocked_cycles::no_mshrs            0                       # number of cycles access was blocked
system.cpu.dcache.blocked_cycles::no_targets            0                       # number of cycles access was blocked
system.cpu.dcache.blocked::no_mshrs                 0                       # number of cycles access was blocked
system.cpu.dcache.blocked::no_targets               0                       # number of cycles access was blocked
system.cpu.dcache.avg_blocked_cycles::no_mshrs          nan                       # average number of cycles each access was blocked
system.cpu.dcache.avg_blocked_cycles::no_targets          nan                       # average number of cycles each access was blocked
system.cpu.dcache.writebacks::writebacks        37946                       # number of writebacks
system.cpu.dcache.writebacks::total             37946                       # number of writebacks
system.cpu.dcache.ReadReq_mshr_misses::switch_cpus.data         6449                       # number of ReadReq MSHR misses
system.cpu.dcache.ReadReq_mshr_misses::total         6449                       # number of ReadReq MSHR misses
system.cpu.dcache.WriteReq_mshr_misses::switch_cpus.data        32946                       # number of WriteReq MSHR misses
system.cpu.dcache.WriteReq_mshr_misses::total        32946                       # number of WriteReq MSHR misses
system.cpu.dcache.demand_mshr_misses::switch_cpus.data        39395                       # number of demand (read+write) MSHR misses
system.cpu.dcache.demand_mshr_misses::total        39395                       # number of demand (read+write) MSHR misses
system.cpu.dcache.overall_mshr_misses::switch_cpus.data        39395                       # number of overall MSHR misses
system.cpu.dcache.overall_mshr_misses::total        39395                       # number of overall MSHR misses
system.cpu.dcache.ReadReq_mshr_miss_latency::switch_cpus.data    534313000                       # number of ReadReq MSHR miss cycles
system.cpu.dcache.ReadReq_mshr_miss_latency::total    534313000                       # number of ReadReq MSHR miss cycles
system.cpu.dcache.WriteReq_mshr_miss_latency::switch_cpus.data   3042271000                       # number of WriteReq MSHR miss cycles
system.cpu.dcache.WriteReq_mshr_miss_latency::total   3042271000                       # number of WriteReq MSHR miss cycles
system.cpu.dcache.demand_mshr_miss_latency::switch_cpus.data   3576584000                       # number of demand (read+write) MSHR miss cycles
system.cpu.dcache.demand_mshr_miss_latency::total   3576584000                       # number of demand (read+write) MSHR miss cycles
system.cpu.dcache.overall_mshr_miss_latency::switch_cpus.data   3576584000                       # number of overall MSHR miss cycles
system.cpu.dcache.overall_mshr_miss_latency::total   3576584000                       # number of overall MSHR miss cycles
system.cpu.dcache.ReadReq_mshr_miss_rate::switch_cpus.data     0.003346                       # mshr miss rate for ReadReq accesses
system.cpu.dcache.ReadReq_mshr_miss_rate::total     0.003346                       # mshr miss rate for ReadReq accesses
system.cpu.dcache.WriteReq_mshr_miss_rate::switch_cpus.data     0.022047                       # mshr miss rate for WriteReq accesses
system.cpu.dcache.WriteReq_mshr_miss_rate::total     0.022047                       # mshr miss rate for WriteReq accesses
system.cpu.dcache.demand_mshr_miss_rate::switch_cpus.data     0.011513                       # mshr miss rate for demand accesses
system.cpu.dcache.demand_mshr_miss_rate::total     0.011513                       # mshr miss rate for demand accesses
system.cpu.dcache.overall_mshr_miss_rate::switch_cpus.data     0.011513                       # mshr miss rate for overall accesses
system.cpu.dcache.overall_mshr_miss_rate::total     0.011513                       # mshr miss rate for overall accesses
system.cpu.dcache.ReadReq_avg_mshr_miss_latency::switch_cpus.data 82852.070088                       # average ReadReq mshr miss latency
system.cpu.dcache.ReadReq_avg_mshr_miss_latency::total 82852.070088                       # average ReadReq mshr miss latency
system.cpu.dcache.WriteReq_avg_mshr_miss_latency::switch_cpus.data 92341.133977                       # average WriteReq mshr miss latency
system.cpu.dcache.WriteReq_avg_mshr_miss_latency::total 92341.133977                       # average WriteReq mshr miss latency
system.cpu.dcache.demand_avg_mshr_miss_latency::switch_cpus.data 90787.764945                       # average overall mshr miss latency
system.cpu.dcache.demand_avg_mshr_miss_latency::total 90787.764945                       # average overall mshr miss latency
system.cpu.dcache.overall_avg_mshr_miss_latency::switch_cpus.data 90787.764945                       # average overall mshr miss latency
system.cpu.dcache.overall_avg_mshr_miss_latency::total 90787.764945                       # average overall mshr miss latency
system.cpu.dtb_walker_cache.tags.pwrStateResidencyTicks::UNDEFINED  32741431500                       # Cumulative time (in ticks) in various power states
system.cpu.dtb_walker_cache.tags.replacements            0                       # number of replacements
system.cpu.dtb_walker_cache.tags.tagsinuse            0                       # Cycle average of tags in use
system.cpu.dtb_walker_cache.tags.total_refs            0                       # Total number of references to valid blocks.
system.cpu.dtb_walker_cache.tags.sampled_refs            0                       # Sample count of references to valid blocks.
system.cpu.dtb_walker_cache.tags.avg_refs          nan                       # Average number of references to valid blocks.
system.cpu.dtb_walker_cache.tags.warmup_cycle            0                       # Cycle when the warmup percentage was hit.
system.cpu.dtb_walker_cache.tags.tag_accesses            0                       # Number of tag accesses
system.cpu.dtb_walker_cache.tags.data_accesses            0                       # Number of data accesses
system.cpu.dtb_walker_cache.pwrStateResidencyTicks::UNDEFINED  32741431500                       # Cumulative time (in ticks) in various power states
system.cpu.dtb_walker_cache.blocked_cycles::no_mshrs            0                       # number of cycles access was blocked
system.cpu.dtb_walker_cache.blocked_cycles::no_targets            0                       # number of cycles access was blocked
system.cpu.dtb_walker_cache.blocked::no_mshrs            0                       # number of cycles access was blocked
system.cpu.dtb_walker_cache.blocked::no_targets            0                       # number of cycles access was blocked
system.cpu.dtb_walker_cache.avg_blocked_cycles::no_mshrs          nan                       # average number of cycles each access was blocked
system.cpu.dtb_walker_cache.avg_blocked_cycles::no_targets          nan                       # average number of cycles each access was blocked
system.cpu.icache.tags.pwrStateResidencyTicks::UNDEFINED  32741431500                       # Cumulative time (in ticks) in various power states
system.cpu.icache.tags.replacements             35296                       # number of replacements
system.cpu.icache.tags.tagsinuse                  335                       # Cycle average of tags in use
system.cpu.icache.tags.total_refs            26364897                       # Total number of references to valid blocks.
system.cpu.icache.tags.sampled_refs             35631                       # Sample count of references to valid blocks.
system.cpu.icache.tags.avg_refs            739.942662                       # Average number of references to valid blocks.
system.cpu.icache.tags.warmup_cycle                 0                       # Cycle when the warmup percentage was hit.
system.cpu.icache.tags.occ_blocks::cpu.inst   331.000079                       # Average occupied blocks per requestor
system.cpu.icache.tags.occ_blocks::switch_cpus.inst     3.999921                       # Average occupied blocks per requestor
system.cpu.icache.tags.occ_percent::cpu.inst     0.646485                       # Average percentage of cache occupancy
system.cpu.icache.tags.occ_percent::switch_cpus.inst     0.007812                       # Average percentage of cache occupancy
system.cpu.icache.tags.occ_percent::total     0.654297                       # Average percentage of cache occupancy
system.cpu.icache.tags.occ_task_id_blocks::1024          335                       # Occupied blocks per task id
system.cpu.icache.tags.age_task_id_blocks_1024::0            4                       # Occupied blocks per task id
system.cpu.icache.tags.age_task_id_blocks_1024::4          331                       # Occupied blocks per task id
system.cpu.icache.tags.occ_task_id_percent::1024     0.654297                       # Percentage of cache occupancy per task id
system.cpu.icache.tags.tag_accesses          27642890                       # Number of tag accesses
system.cpu.icache.tags.data_accesses         27642890                       # Number of data accesses
system.cpu.icache.pwrStateResidencyTicks::UNDEFINED  32741431500                       # Cumulative time (in ticks) in various power states
system.cpu.icache.ReadReq_hits::switch_cpus.inst     13768501                       # number of ReadReq hits
system.cpu.icache.ReadReq_hits::total        13768501                       # number of ReadReq hits
system.cpu.icache.demand_hits::switch_cpus.inst     13768501                       # number of demand (read+write) hits
system.cpu.icache.demand_hits::total         13768501                       # number of demand (read+write) hits
system.cpu.icache.overall_hits::switch_cpus.inst     13768501                       # number of overall hits
system.cpu.icache.overall_hits::total        13768501                       # number of overall hits
system.cpu.icache.ReadReq_misses::switch_cpus.inst        35296                       # number of ReadReq misses
system.cpu.icache.ReadReq_misses::total         35296                       # number of ReadReq misses
system.cpu.icache.demand_misses::switch_cpus.inst        35296                       # number of demand (read+write) misses
system.cpu.icache.demand_misses::total          35296                       # number of demand (read+write) misses
system.cpu.icache.overall_misses::switch_cpus.inst        35296                       # number of overall misses
system.cpu.icache.overall_misses::total         35296                       # number of overall misses
system.cpu.icache.ReadReq_miss_latency::switch_cpus.inst    458848000                       # number of ReadReq miss cycles
system.cpu.icache.ReadReq_miss_latency::total    458848000                       # number of ReadReq miss cycles
system.cpu.icache.demand_miss_latency::switch_cpus.inst    458848000                       # number of demand (read+write) miss cycles
system.cpu.icache.demand_miss_latency::total    458848000                       # number of demand (read+write) miss cycles
system.cpu.icache.overall_miss_latency::switch_cpus.inst    458848000                       # number of overall miss cycles
system.cpu.icache.overall_miss_latency::total    458848000                       # number of overall miss cycles
system.cpu.icache.ReadReq_accesses::switch_cpus.inst     13803797                       # number of ReadReq accesses(hits+misses)
system.cpu.icache.ReadReq_accesses::total     13803797                       # number of ReadReq accesses(hits+misses)
system.cpu.icache.demand_accesses::switch_cpus.inst     13803797                       # number of demand (read+write) accesses
system.cpu.icache.demand_accesses::total     13803797                       # number of demand (read+write) accesses
system.cpu.icache.overall_accesses::switch_cpus.inst     13803797                       # number of overall (read+write) accesses
system.cpu.icache.overall_accesses::total     13803797                       # number of overall (read+write) accesses
system.cpu.icache.ReadReq_miss_rate::switch_cpus.inst     0.002557                       # miss rate for ReadReq accesses
system.cpu.icache.ReadReq_miss_rate::total     0.002557                       # miss rate for ReadReq accesses
system.cpu.icache.demand_miss_rate::switch_cpus.inst     0.002557                       # miss rate for demand accesses
system.cpu.icache.demand_miss_rate::total     0.002557                       # miss rate for demand accesses
system.cpu.icache.overall_miss_rate::switch_cpus.inst     0.002557                       # miss rate for overall accesses
system.cpu.icache.overall_miss_rate::total     0.002557                       # miss rate for overall accesses
system.cpu.icache.ReadReq_avg_miss_latency::switch_cpus.inst        13000                       # average ReadReq miss latency
system.cpu.icache.ReadReq_avg_miss_latency::total        13000                       # average ReadReq miss latency
system.cpu.icache.demand_avg_miss_latency::switch_cpus.inst        13000                       # average overall miss latency
system.cpu.icache.demand_avg_miss_latency::total        13000                       # average overall miss latency
system.cpu.icache.overall_avg_miss_latency::switch_cpus.inst        13000                       # average overall miss latency
system.cpu.icache.overall_avg_miss_latency::total        13000                       # average overall miss latency
system.cpu.icache.blocked_cycles::no_mshrs            0                       # number of cycles access was blocked
system.cpu.icache.blocked_cycles::no_targets            0                       # number of cycles access was blocked
system.cpu.icache.blocked::no_mshrs                 0                       # number of cycles access was blocked
system.cpu.icache.blocked::no_targets               0                       # number of cycles access was blocked
system.cpu.icache.avg_blocked_cycles::no_mshrs          nan                       # average number of cycles each access was blocked
system.cpu.icache.avg_blocked_cycles::no_targets          nan                       # average number of cycles each access was blocked
system.cpu.icache.writebacks::writebacks        35296                       # number of writebacks
system.cpu.icache.writebacks::total             35296                       # number of writebacks
system.cpu.icache.ReadReq_mshr_misses::switch_cpus.inst        35296                       # number of ReadReq MSHR misses
system.cpu.icache.ReadReq_mshr_misses::total        35296                       # number of ReadReq MSHR misses
system.cpu.icache.demand_mshr_misses::switch_cpus.inst        35296                       # number of demand (read+write) MSHR misses
system.cpu.icache.demand_mshr_misses::total        35296                       # number of demand (read+write) MSHR misses
system.cpu.icache.overall_mshr_misses::switch_cpus.inst        35296                       # number of overall MSHR misses
system.cpu.icache.overall_mshr_misses::total        35296                       # number of overall MSHR misses
system.cpu.icache.ReadReq_mshr_miss_latency::switch_cpus.inst    423552000                       # number of ReadReq MSHR miss cycles
system.cpu.icache.ReadReq_mshr_miss_latency::total    423552000                       # number of ReadReq MSHR miss cycles
system.cpu.icache.demand_mshr_miss_latency::switch_cpus.inst    423552000                       # number of demand (read+write) MSHR miss cycles
system.cpu.icache.demand_mshr_miss_latency::total    423552000                       # number of demand (read+write) MSHR miss cycles
system.cpu.icache.overall_mshr_miss_latency::switch_cpus.inst    423552000                       # number of overall MSHR miss cycles
system.cpu.icache.overall_mshr_miss_latency::total    423552000                       # number of overall MSHR miss cycles
system.cpu.icache.ReadReq_mshr_miss_rate::switch_cpus.inst     0.002557                       # mshr miss rate for ReadReq accesses
system.cpu.icache.ReadReq_mshr_miss_rate::total     0.002557                       # mshr miss rate for ReadReq accesses
system.cpu.icache.demand_mshr_miss_rate::switch_cpus.inst     0.002557                       # mshr miss rate for demand accesses
system.cpu.icache.demand_mshr_miss_rate::total     0.002557                       # mshr miss rate for demand accesses
system.cpu.icache.overall_mshr_miss_rate::switch_cpus.inst     0.002557                       # mshr miss rate for overall accesses
system.cpu.icache.overall_mshr_miss_rate::total     0.002557                       # mshr miss rate for overall accesses
system.cpu.icache.ReadReq_avg_mshr_miss_latency::switch_cpus.inst        12000                       # average ReadReq mshr miss latency
system.cpu.icache.ReadReq_avg_mshr_miss_latency::total        12000                       # average ReadReq mshr miss latency
system.cpu.icache.demand_avg_mshr_miss_latency::switch_cpus.inst        12000                       # average overall mshr miss latency
system.cpu.icache.demand_avg_mshr_miss_latency::total        12000                       # average overall mshr miss latency
system.cpu.icache.overall_avg_mshr_miss_latency::switch_cpus.inst        12000                       # average overall mshr miss latency
system.cpu.icache.overall_avg_mshr_miss_latency::total        12000                       # average overall mshr miss latency
system.cpu.itb_walker_cache.tags.pwrStateResidencyTicks::UNDEFINED  32741431500                       # Cumulative time (in ticks) in various power states
system.cpu.itb_walker_cache.tags.replacements            0                       # number of replacements
system.cpu.itb_walker_cache.tags.tagsinuse            0                       # Cycle average of tags in use
system.cpu.itb_walker_cache.tags.total_refs            0                       # Total number of references to valid blocks.
system.cpu.itb_walker_cache.tags.sampled_refs            0                       # Sample count of references to valid blocks.
system.cpu.itb_walker_cache.tags.avg_refs          nan                       # Average number of references to valid blocks.
system.cpu.itb_walker_cache.tags.warmup_cycle            0                       # Cycle when the warmup percentage was hit.
system.cpu.itb_walker_cache.tags.tag_accesses            0                       # Number of tag accesses
system.cpu.itb_walker_cache.tags.data_accesses            0                       # Number of data accesses
system.cpu.itb_walker_cache.pwrStateResidencyTicks::UNDEFINED  32741431500                       # Cumulative time (in ticks) in various power states
system.cpu.itb_walker_cache.blocked_cycles::no_mshrs            0                       # number of cycles access was blocked
system.cpu.itb_walker_cache.blocked_cycles::no_targets            0                       # number of cycles access was blocked
system.cpu.itb_walker_cache.blocked::no_mshrs            0                       # number of cycles access was blocked
system.cpu.itb_walker_cache.blocked::no_targets            0                       # number of cycles access was blocked
system.cpu.itb_walker_cache.avg_blocked_cycles::no_mshrs          nan                       # average number of cycles each access was blocked
system.cpu.itb_walker_cache.avg_blocked_cycles::no_targets          nan                       # average number of cycles each access was blocked
system.l2.tags.pwrStateResidencyTicks::UNDEFINED  32741431500                       # Cumulative time (in ticks) in various power states
system.l2.tags.replacements                     37947                       # number of replacements
system.l2.tags.tagsinuse                         4096                       # Cycle average of tags in use
system.l2.tags.total_refs                      187908                       # Total number of references to valid blocks.
system.l2.tags.sampled_refs                     42043                       # Sample count of references to valid blocks.
system.l2.tags.avg_refs                      4.469424                       # Average number of references to valid blocks.
system.l2.tags.warmup_cycle                         0                       # Cycle when the warmup percentage was hit.
system.l2.tags.occ_blocks::writebacks        5.925400                       # Average occupied blocks per requestor
system.l2.tags.occ_blocks::cpu.inst                 6                       # Average occupied blocks per requestor
system.l2.tags.occ_blocks::cpu.data        226.627655                       # Average occupied blocks per requestor
system.l2.tags.occ_blocks::switch_cpus.data  3857.446946                       # Average occupied blocks per requestor
system.l2.tags.occ_percent::writebacks       0.001447                       # Average percentage of cache occupancy
system.l2.tags.occ_percent::cpu.inst         0.001465                       # Average percentage of cache occupancy
system.l2.tags.occ_percent::cpu.data         0.055329                       # Average percentage of cache occupancy
system.l2.tags.occ_percent::switch_cpus.data     0.941760                       # Average percentage of cache occupancy
system.l2.tags.occ_percent::total                   1                       # Average percentage of cache occupancy
system.l2.tags.occ_task_id_blocks::1024          4096                       # Occupied blocks per task id
system.l2.tags.age_task_id_blocks_1024::0           19                       # Occupied blocks per task id
system.l2.tags.age_task_id_blocks_1024::1          163                       # Occupied blocks per task id
system.l2.tags.age_task_id_blocks_1024::2         1623                       # Occupied blocks per task id
system.l2.tags.age_task_id_blocks_1024::3         2278                       # Occupied blocks per task id
system.l2.tags.age_task_id_blocks_1024::4           13                       # Occupied blocks per task id
system.l2.tags.occ_task_id_percent::1024            1                       # Percentage of cache occupancy per task id
system.l2.tags.tag_accesses                   1233003                       # Number of tag accesses
system.l2.tags.data_accesses                  1233003                       # Number of data accesses
system.l2.pwrStateResidencyTicks::UNDEFINED  32741431500                       # Cumulative time (in ticks) in various power states
system.l2.WritebackDirty_hits::writebacks        37946                       # number of WritebackDirty hits
system.l2.WritebackDirty_hits::total            37946                       # number of WritebackDirty hits
system.l2.WritebackClean_hits::writebacks        35296                       # number of WritebackClean hits
system.l2.WritebackClean_hits::total            35296                       # number of WritebackClean hits
system.l2.ReadExReq_hits::switch_cpus.data          590                       # number of ReadExReq hits
system.l2.ReadExReq_hits::total                   590                       # number of ReadExReq hits
system.l2.ReadCleanReq_hits::switch_cpus.inst        35296                       # number of ReadCleanReq hits
system.l2.ReadCleanReq_hits::total              35296                       # number of ReadCleanReq hits
system.l2.ReadSharedReq_hits::switch_cpus.data          923                       # number of ReadSharedReq hits
system.l2.ReadSharedReq_hits::total               923                       # number of ReadSharedReq hits
system.l2.demand_hits::switch_cpus.inst         35296                       # number of demand (read+write) hits
system.l2.demand_hits::switch_cpus.data          1513                       # number of demand (read+write) hits
system.l2.demand_hits::total                    36809                       # number of demand (read+write) hits
system.l2.overall_hits::switch_cpus.inst        35296                       # number of overall hits
system.l2.overall_hits::switch_cpus.data         1513                       # number of overall hits
system.l2.overall_hits::total                   36809                       # number of overall hits
system.l2.ReadExReq_misses::switch_cpus.data        32356                       # number of ReadExReq misses
system.l2.ReadExReq_misses::total               32356                       # number of ReadExReq misses
system.l2.ReadSharedReq_misses::switch_cpus.data         5526                       # number of ReadSharedReq misses
system.l2.ReadSharedReq_misses::total            5526                       # number of ReadSharedReq misses
system.l2.demand_misses::switch_cpus.data        37882                       # number of demand (read+write) misses
system.l2.demand_misses::total                  37882                       # number of demand (read+write) misses
system.l2.overall_misses::switch_cpus.data        37882                       # number of overall misses
system.l2.overall_misses::total                 37882                       # number of overall misses
system.l2.ReadExReq_miss_latency::switch_cpus.data   2986657000                       # number of ReadExReq miss cycles
system.l2.ReadExReq_miss_latency::total    2986657000                       # number of ReadExReq miss cycles
system.l2.ReadSharedReq_miss_latency::switch_cpus.data    514948000                       # number of ReadSharedReq miss cycles
system.l2.ReadSharedReq_miss_latency::total    514948000                       # number of ReadSharedReq miss cycles
system.l2.demand_miss_latency::switch_cpus.data   3501605000                       # number of demand (read+write) miss cycles
system.l2.demand_miss_latency::total       3501605000                       # number of demand (read+write) miss cycles
system.l2.overall_miss_latency::switch_cpus.data   3501605000                       # number of overall miss cycles
system.l2.overall_miss_latency::total      3501605000                       # number of overall miss cycles
system.l2.WritebackDirty_accesses::writebacks        37946                       # number of WritebackDirty accesses(hits+misses)
system.l2.WritebackDirty_accesses::total        37946                       # number of WritebackDirty accesses(hits+misses)
system.l2.WritebackClean_accesses::writebacks        35296                       # number of WritebackClean accesses(hits+misses)
system.l2.WritebackClean_accesses::total        35296                       # number of WritebackClean accesses(hits+misses)
system.l2.ReadExReq_accesses::switch_cpus.data        32946                       # number of ReadExReq accesses(hits+misses)
system.l2.ReadExReq_accesses::total             32946                       # number of ReadExReq accesses(hits+misses)
system.l2.ReadCleanReq_accesses::switch_cpus.inst        35296                       # number of ReadCleanReq accesses(hits+misses)
system.l2.ReadCleanReq_accesses::total          35296                       # number of ReadCleanReq accesses(hits+misses)
system.l2.ReadSharedReq_accesses::switch_cpus.data         6449                       # number of ReadSharedReq accesses(hits+misses)
system.l2.ReadSharedReq_accesses::total          6449                       # number of ReadSharedReq accesses(hits+misses)
system.l2.demand_accesses::switch_cpus.inst        35296                       # number of demand (read+write) accesses
system.l2.demand_accesses::switch_cpus.data        39395                       # number of demand (read+write) accesses
system.l2.demand_accesses::total                74691                       # number of demand (read+write) accesses
system.l2.overall_accesses::switch_cpus.inst        35296                       # number of overall (read+write) accesses
system.l2.overall_accesses::switch_cpus.data        39395                       # number of overall (read+write) accesses
system.l2.overall_accesses::total               74691                       # number of overall (read+write) accesses
system.l2.ReadExReq_miss_rate::switch_cpus.data     0.982092                       # miss rate for ReadExReq accesses
system.l2.ReadExReq_miss_rate::total         0.982092                       # miss rate for ReadExReq accesses
system.l2.ReadSharedReq_miss_rate::switch_cpus.data     0.856877                       # miss rate for ReadSharedReq accesses
system.l2.ReadSharedReq_miss_rate::total     0.856877                       # miss rate for ReadSharedReq accesses
system.l2.demand_miss_rate::switch_cpus.data     0.961594                       # miss rate for demand accesses
system.l2.demand_miss_rate::total            0.507183                       # miss rate for demand accesses
system.l2.overall_miss_rate::switch_cpus.data     0.961594                       # miss rate for overall accesses
system.l2.overall_miss_rate::total           0.507183                       # miss rate for overall accesses
system.l2.ReadExReq_avg_miss_latency::switch_cpus.data 92306.125603                       # average ReadExReq miss latency
system.l2.ReadExReq_avg_miss_latency::total 92306.125603                       # average ReadExReq miss latency
system.l2.ReadSharedReq_avg_miss_latency::switch_cpus.data 93186.391603                       # average ReadSharedReq miss latency
system.l2.ReadSharedReq_avg_miss_latency::total 93186.391603                       # average ReadSharedReq miss latency
system.l2.demand_avg_miss_latency::switch_cpus.data 92434.533552                       # average overall miss latency
system.l2.demand_avg_miss_latency::total 92434.533552                       # average overall miss latency
system.l2.overall_avg_miss_latency::switch_cpus.data 92434.533552                       # average overall miss latency
system.l2.overall_avg_miss_latency::total 92434.533552                       # average overall miss latency
system.l2.blocked_cycles::no_mshrs                  0                       # number of cycles access was blocked
[...]
system.l2.ReadExReq_mshr_miss_latency::total   2663097000                       # number of ReadExReq MSHR miss cycles
system.l2.ReadSharedReq_mshr_miss_latency::switch_cpus.data    459688000                       # number of ReadSharedReq MSHR miss cycles
system.l2.ReadSharedReq_mshr_miss_latency::total    459688000                       # number of ReadSharedReq MSHR miss cycles
system.l2.demand_mshr_miss_latency::switch_cpus.data   3122785000                       # number of demand (read+write) MSHR miss cycles
system.l2.demand_mshr_miss_latency::total   3122785000                       # number of demand (read+write) MSHR miss cycles
system.l2.overall_mshr_miss_latency::switch_cpus.data   3122785000                       # number of overall MSHR miss cycles
system.l2.overall_mshr_miss_latency::total   3122785000                       # number of overall MSHR miss cycles
system.l2.CleanEvict_mshr_miss_rate::writebacks          inf                       # mshr miss rate for CleanEvict accesses
system.l2.CleanEvict_mshr_miss_rate::total          inf                       # mshr miss rate for CleanEvict accesses
system.l2.ReadExReq_mshr_miss_rate::switch_cpus.data     0.982092                       # mshr miss rate for ReadExReq accesses
system.l2.ReadExReq_mshr_miss_rate::total     0.982092                       # mshr miss rate for ReadExReq accesses
system.l2.ReadSharedReq_mshr_miss_rate::switch_cpus.data     0.856877                       # mshr miss rate for ReadSharedReq accesses
system.l2.ReadSharedReq_mshr_miss_rate::total     0.856877                       # mshr miss rate for ReadSharedReq accesses
system.l2.demand_mshr_miss_rate::switch_cpus.data     0.961594                       # mshr miss rate for demand accesses
system.l2.demand_mshr_miss_rate::total       0.507183                       # mshr miss rate for demand accesses
system.l2.overall_mshr_miss_rate::switch_cpus.data     0.961594                       # mshr miss rate for overall accesses
system.l2.overall_mshr_miss_rate::total      0.507183                       # mshr miss rate for overall accesses
system.l2.ReadExReq_avg_mshr_miss_latency::switch_cpus.data 82306.125603                       # average ReadExReq mshr miss latency
system.l2.ReadExReq_avg_mshr_miss_latency::total 82306.125603                       # average ReadExReq mshr miss latency
system.l2.ReadSharedReq_avg_mshr_miss_latency::switch_cpus.data 83186.391603                       # average ReadSharedReq mshr miss latency
system.l2.ReadSharedReq_avg_mshr_miss_latency::total 83186.391603                       # average ReadSharedReq mshr miss latency
system.l2.demand_avg_mshr_miss_latency::switch_cpus.data 82434.533552                       # average overall mshr miss latency
system.l2.demand_avg_mshr_miss_latency::total 82434.533552                       # average overall mshr miss latency
system.l2.overall_avg_mshr_miss_latency::switch_cpus.data 82434.533552                       # average overall mshr miss latency
system.l2.overall_avg_mshr_miss_latency::total 82434.533552                       # average overall mshr miss latency
system.membus.snoop_filter.tot_requests         75768                       # Total number of requests made to the snoop filter.
system.membus.snoop_filter.hit_single_requests        37886                       # Number of requests hitting in the snoop filter with a single holder of the requested data.
system.membus.snoop_filter.hit_multi_requests            0                       # Number of requests hitting in the snoop filter with multiple (>1) holders of the requested data.
system.membus.snoop_filter.tot_snoops               0                       # Total number of snoops made to the snoop filter.
system.membus.snoop_filter.hit_single_snoops            0                       # Number of snoops hitting in the snoop filter with a single holder of the requested data.
system.membus.snoop_filter.hit_multi_snoops            0                       # Number of snoops hitting in the snoop filter with multiple (>1) holders of the requested data.
system.membus.pwrStateResidencyTicks::UNDEFINED  32741431500                       # Cumulative time (in ticks) in various power states
system.membus.trans_dist::ReadResp               5526                       # Transaction distribution
system.membus.trans_dist::WritebackDirty        36791                       # Transaction distribution
system.membus.trans_dist::CleanEvict             1095                       # Transaction distribution
system.membus.trans_dist::ReadExReq             32356                       # Transaction distribution
system.membus.trans_dist::ReadExResp            32356                       # Transaction distribution
system.membus.trans_dist::ReadSharedReq          5526                       # Transaction distribution
system.membus.pkt_count_system.l2.mem_side::system.mem_ctrls.port       113650                       # Packet count per connected master and slave (bytes)
system.membus.pkt_count_system.l2.mem_side::total       113650                       # Packet count per connected master and slave (bytes)
system.membus.pkt_count::total                 113650                       # Packet count per connected master and slave (bytes)
system.membus.pkt_size_system.l2.mem_side::system.mem_ctrls.port      4779072                       # Cumulative packet size per connected master and slave (bytes)
system.membus.pkt_size_system.l2.mem_side::total      4779072                       # Cumulative packet size per connected master and slave (bytes)
system.membus.pkt_size::total                 4779072                       # Cumulative packet size per connected master and slave (bytes)
system.membus.snoops                                0                       # Total snoops (count)
system.membus.snoopTraffic                          0                       # Total snoop traffic (bytes)
system.membus.snoop_fanout::samples             37882                       # Request fanout histogram
system.membus.snoop_fanout::mean                    0                       # Request fanout histogram
system.membus.snoop_fanout::stdev                   0                       # Request fanout histogram
system.membus.snoop_fanout::underflows              0      0.00%      0.00% # Request fanout histogram
system.membus.snoop_fanout::0                   37882    100.00%    100.00% # Request fanout histogram
system.membus.snoop_fanout::1                       0      0.00%    100.00% # Request fanout histogram
system.membus.snoop_fanout::overflows               0      0.00%    100.00% # Request fanout histogram
system.membus.snoop_fanout::min_value               0                       # Request fanout histogram
system.membus.snoop_fanout::max_value               0                       # Request fanout histogram
system.membus.snoop_fanout::total               37882                       # Request fanout histogram
system.membus.reqLayer2.occupancy           223479000                       # Layer occupancy (ticks)
system.membus.reqLayer2.utilization               1.1                       # Layer utilization (%)
system.membus.respLayer1.occupancy          202633750                       # Layer occupancy (ticks)
system.membus.respLayer1.utilization              1.0                       # Layer utilization (%)
system.switch_cpus.dtb.walker.pwrStateResidencyTicks::UNDEFINED  32741431500                       # Cumulative time (in ticks) in various power states
system.switch_cpus.itb.walker.pwrStateResidencyTicks::UNDEFINED  32741431500                       # Cumulative time (in ticks) in various power states
system.switch_cpus.pwrStateResidencyTicks::ON  32741431500                       # Cumulative time (in ticks) in various power states
system.switch_cpus.numCycles                 42450181                       # number of cpu cycles simulated
system.switch_cpus.numWorkItemsStarted              0                       # number of work items this cpu started
system.switch_cpus.numWorkItemsCompleted            0                       # number of work items this cpu completed
system.switch_cpus.committedInsts            10000000                       # Number of instructions committed
system.switch_cpus.committedOps              19228528                       # Number of ops (including micro ops) committed
system.switch_cpus.num_int_alu_accesses      19019315                       # Number of integer alu accesses
system.switch_cpus.num_fp_alu_accesses         183114                       # Number of float alu accesses
system.switch_cpus.num_func_calls              200097                       # number of times a function call or return occured
system.switch_cpus.num_conditional_control_insts      1979061                       # number of instructions that are conditional controls
system.switch_cpus.num_int_insts             19019315                       # number of integer instructions
system.switch_cpus.num_fp_insts                183114                       # number of float instructions
system.switch_cpus.num_int_register_reads     35944202                       # number of times the integer registers were read
system.switch_cpus.num_int_register_writes     15143548                       # number of times the integer registers were written
system.switch_cpus.num_fp_register_reads       279462                       # number of times the floating registers were read
system.switch_cpus.num_fp_register_writes       157386                       # number of times the floating registers were written
system.switch_cpus.num_cc_register_reads     12877387                       # number of times the CC registers were read
system.switch_cpus.num_cc_register_writes      6584239                       # number of times the CC registers were written
system.switch_cpus.num_mem_refs               3420611                       # number of memory refs
system.switch_cpus.num_load_insts             1926244                       # Number of load instructions
system.switch_cpus.num_store_insts            1494367                       # Number of store instructions
system.switch_cpus.num_idle_cycles                  0                       # Number of idle cycles
system.switch_cpus.num_busy_cycles           42450181                       # Number of busy cycles
system.switch_cpus.not_idle_fraction                1                       # Percentage of non-idle cycles
system.switch_cpus.idle_fraction                    0                       # Percentage of idle cycles
system.switch_cpus.Branches                   2414484                       # Number of branches fetched
system.switch_cpus.op_class::No_OpClass         83443      0.43%      0.43% # Class of executed instruction
system.switch_cpus.op_class::IntAlu          15520028     80.71%     81.15% # Class of executed instruction
system.switch_cpus.op_class::IntMult            58830      0.31%     81.45% # Class of executed instruction
system.switch_cpus.op_class::IntDiv                 0      0.00%     81.45% # Class of executed instruction
system.switch_cpus.op_class::FloatAdd          145616      0.76%     82.21% # Class of executed instruction
system.switch_cpus.op_class::FloatCmp               0      0.00%     82.21% # Class of executed instruction
system.switch_cpus.op_class::FloatCvt               0      0.00%     82.21% # Class of executed instruction
system.switch_cpus.op_class::FloatMult              0      0.00%     82.21% # Class of executed instruction
system.switch_cpus.op_class::FloatMultAcc            0      0.00%     82.21% # Class of executed instruction
system.switch_cpus.op_class::FloatDiv               0      0.00%     82.21% # Class of executed instruction
system.switch_cpus.op_class::FloatMisc              0      0.00%     82.21% # Class of executed instruction
system.switch_cpus.op_class::FloatSqrt              0      0.00%     82.21% # Class of executed instruction
system.switch_cpus.op_class::SimdAdd                0      0.00%     82.21% # Class of executed instruction
system.switch_cpus.op_class::SimdAddAcc             0      0.00%     82.21% # Class of executed instruction
system.switch_cpus.op_class::SimdAlu                0      0.00%     82.21% # Class of executed instruction
system.switch_cpus.op_class::SimdCmp                0      0.00%     82.21% # Class of executed instruction
system.switch_cpus.op_class::SimdCvt                0      0.00%     82.21% # Class of executed instruction
system.switch_cpus.op_class::SimdMisc               0      0.00%     82.21% # Class of executed instruction
system.switch_cpus.op_class::SimdMult               0      0.00%     82.21% # Class of executed instruction
system.switch_cpus.op_class::SimdMultAcc            0      0.00%     82.21% # Class of executed instruction
system.switch_cpus.op_class::SimdShift              0      0.00%     82.21% # Class of executed instruction
system.switch_cpus.op_class::SimdShiftAcc            0      0.00%     82.21% # Class of executed instruction
system.switch_cpus.op_class::SimdSqrt               0      0.00%     82.21% # Class of executed instruction
system.switch_cpus.op_class::SimdFloatAdd            0      0.00%     82.21% # Class of executed instruction
system.switch_cpus.op_class::SimdFloatAlu            0      0.00%     82.21% # Class of executed instruction
system.switch_cpus.op_class::SimdFloatCmp            0      0.00%     82.21% # Class of executed instruction
system.switch_cpus.op_class::SimdFloatCvt            0      0.00%     82.21% # Class of executed instruction
system.switch_cpus.op_class::SimdFloatDiv            0      0.00%     82.21% # Class of executed instruction
system.switch_cpus.op_class::SimdFloatMisc            0      0.00%     82.21% # Class of executed instruction
system.switch_cpus.op_class::SimdFloatMult            0      0.00%     82.21% # Class of executed instruction
system.switch_cpus.op_class::SimdFloatMultAcc            0      0.00%     82.21% # Class of executed instruction
system.switch_cpus.op_class::SimdFloatSqrt            0      0.00%     82.21% # Class of executed instruction
system.switch_cpus.op_class::MemRead          1900516      9.88%     92.09% # Class of executed instruction
system.switch_cpus.op_class::MemWrite         1494367      7.77%     99.87% # Class of executed instruction
system.switch_cpus.op_class::FloatMemRead        25728      0.13%    100.00% # Class of executed instruction
system.switch_cpus.op_class::FloatMemWrite            0      0.00%    100.00% # Class of executed instruction
system.switch_cpus.op_class::IprAccess              0      0.00%    100.00% # Class of executed instruction
system.switch_cpus.op_class::InstPrefetch            0      0.00%    100.00% # Class of executed instruction
system.switch_cpus.op_class::total           19228528                       # Class of executed instruction
system.tol2bus.snoop_filter.tot_requests       149382                       # Total number of requests made to the snoop filter.
system.tol2bus.snoop_filter.hit_single_requests        74691                       # Number of requests hitting in the snoop filter with a single holder of the requested data.
system.tol2bus.snoop_filter.hit_multi_requests            0                       # Number of requests hitting in the snoop filter with multiple (>1) holders of the requested data.
system.tol2bus.snoop_filter.tot_snoops             73                       # Total number of snoops made to the snoop filter.
system.tol2bus.snoop_filter.hit_single_snoops           73                       # Number of snoops hitting in the snoop filter with a single holder of the requested data.
system.tol2bus.snoop_filter.hit_multi_snoops            0                       # Number of snoops hitting in the snoop filter with multiple (>1) holders of the requested data.
system.tol2bus.pwrStateResidencyTicks::UNDEFINED  32741431500                       # Cumulative time (in ticks) in various power states
system.tol2bus.trans_dist::ReadResp             41745                       # Transaction distribution
system.tol2bus.trans_dist::WritebackDirty        74737                       # Transaction distribution
system.tol2bus.trans_dist::WritebackClean        35296                       # Transaction distribution
system.tol2bus.trans_dist::CleanEvict            2605                       # Transaction distribution
system.tol2bus.trans_dist::ReadExReq            32946                       # Transaction distribution
system.tol2bus.trans_dist::ReadExResp           32946                       # Transaction distribution
system.tol2bus.trans_dist::ReadCleanReq         35296                       # Transaction distribution
system.tol2bus.trans_dist::ReadSharedReq         6449                       # Transaction distribution
system.tol2bus.pkt_count_system.cpu.icache.mem_side::system.l2.cpu_side       105888                       # Packet count per connected master and slave (bytes)
system.tol2bus.pkt_count_system.cpu.dcache.mem_side::system.l2.cpu_side       118185                       # Packet count per connected master and slave (bytes)
system.tol2bus.pkt_count::total                224073                       # Packet count per connected master and slave (bytes)
system.tol2bus.pkt_size_system.cpu.icache.mem_side::system.l2.cpu_side      4517888                       # Cumulative packet size per connected master and slave (bytes)
system.tol2bus.pkt_size_system.cpu.dcache.mem_side::system.l2.cpu_side      4949824                       # Cumulative packet size per connected master and slave (bytes)
system.tol2bus.pkt_size::total                9467712                       # Cumulative packet size per connected master and slave (bytes)
system.tol2bus.snoops                           37947                       # Total snoops (count)
system.tol2bus.snoopTraffic                   2354624                       # Total snoop traffic (bytes)
system.tol2bus.snoop_fanout::samples           112638                       # Request fanout histogram
system.tol2bus.snoop_fanout::mean            0.000648                       # Request fanout histogram
system.tol2bus.snoop_fanout::stdev           0.025450                       # Request fanout histogram
system.tol2bus.snoop_fanout::underflows             0      0.00%      0.00% # Request fanout histogram
system.tol2bus.snoop_fanout::0                 112565     99.94%     99.94% # Request fanout histogram
system.tol2bus.snoop_fanout::1                     73      0.06%    100.00% # Request fanout histogram
system.tol2bus.snoop_fanout::2                      0      0.00%    100.00% # Request fanout histogram
system.tol2bus.snoop_fanout::3                      0      0.00%    100.00% # Request fanout histogram
system.tol2bus.snoop_fanout::4                      0      0.00%    100.00% # Request fanout histogram
system.tol2bus.snoop_fanout::overflows              0      0.00%    100.00% # Request fanout histogram
system.tol2bus.snoop_fanout::min_value              0                       # Request fanout histogram
system.tol2bus.snoop_fanout::max_value              1                       # Request fanout histogram
system.tol2bus.snoop_fanout::total             112638                       # Request fanout histogram
system.tol2bus.reqLayer0.occupancy          147933000                       # Layer occupancy (ticks)
system.tol2bus.reqLayer0.utilization              0.7                       # Layer utilization (%)
system.tol2bus.respLayer0.occupancy          52944000                       # Layer occupancy (ticks)
system.tol2bus.respLayer0.utilization             0.2                       # Layer utilization (%)
system.tol2bus.respLayer1.occupancy          59092500                       # Layer occupancy (ticks)
system.tol2bus.respLayer1.utilization             0.3                       # Layer utilization (%)

---------- End Simulation Statistics   ----------
